

        *** GPGPU-Sim Simulator Version 4.0.0  [build gpgpu-sim_git-commit-005a04d4a9b57b681d8229013eb40e9b3ff66405_modified_0.0] ***


DRAM Timing Options:
nbk                                    16 # number of banks
CCD                                     1 # column to column delay
RRD                                     3 # minimal delay between activation of rows in different banks
RCD                                    12 # row to column delay
RAS                                    28 # time needed to activate row
RP                                     12 # time needed to precharge (deactivate) row
RC                                     40 # row cycle time
CDLR                                    3 # switching from write to read (changes tWTR)
WR                                     10 # last data-in to row precharge
CL                                     12 # CAS latency
WL                                      2 # Write latency
nbkgrp                                  4 # number of bank groups
CCDL                                    2 # column to column delay between accesses to different bank groups
RTPL                                    3 # read to precharge delay between accesses to different bank groups
Total number of memory sub partition = 16
addr_dec_mask[CHIP]  = 0000000000000700 	high:11 low:8
addr_dec_mask[BK]    = 0000000000038800 	high:18 low:11
addr_dec_mask[ROW]   = 000000007ffc0000 	high:31 low:18
addr_dec_mask[COL]   = 00000000000070ff 	high:15 low:0
addr_dec_mask[BURST] = 000000000000001f 	high:5 low:0
addr_dec_mask[GPU_DEVICE]  = ff00000000000000 	high:64 low:56
sub_partition_id_mask = 0000000000000800
Link latency: 2
Link latency: 2
GPGPU-Sim uArch: interconnect node map (shaderID+MemID to icntID)
GPGPU-Sim uArch: Memory nodes ID start from index: 1
GPGPU-Sim uArch:    0
GPGPU-Sim uArch:    1
GPGPU-Sim uArch: interconnect node reverse map (icntID to shaderID+MemID)
GPGPU-Sim uArch: Memory nodes start from ID: 1
GPGPU-Sim uArch:    0
GPGPU-Sim uArch:    1
*** Initializing Memory Statistics ***
GPGPU-Sim uses Ramulator memory model
SECTOR_SIZE 32
Ramulator instance name: GPU_ramulator_0
Memory instance will be instantiated
File name: ./output/ramulator.stats
GPGPU-Sim uses Ramulator memory model
SECTOR_SIZE 32
Ramulator instance name: GPU_ramulator_1
Memory instance will be instantiated
GPGPU-Sim uses Ramulator memory model
SECTOR_SIZE 32
Ramulator instance name: GPU_ramulator_2
Memory instance will be instantiated
GPGPU-Sim uses Ramulator memory model
SECTOR_SIZE 32
Ramulator instance name: GPU_ramulator_3
Memory instance will be instantiated
GPGPU-Sim uses Ramulator memory model
SECTOR_SIZE 32
Ramulator instance name: GPU_ramulator_4
Memory instance will be instantiated
GPGPU-Sim uses Ramulator memory model
SECTOR_SIZE 32
Ramulator instance name: GPU_ramulator_5
Memory instance will be instantiated
GPGPU-Sim uses Ramulator memory model
SECTOR_SIZE 32
Ramulator instance name: GPU_ramulator_6
Memory instance will be instantiated
GPGPU-Sim uses Ramulator memory model
SECTOR_SIZE 32
Ramulator instance name: GPU_ramulator_7
Memory instance will be instantiated
Link latency: 2
Link latency: 2
GPGPU-Sim uArch: interconnect node map (shaderID+MemID to icntID)
GPGPU-Sim uArch: Memory nodes ID start from index: 20
GPGPU-Sim uArch:    0   1   2   3   4   5   6
GPGPU-Sim uArch:    7   8   9  10  11  12  13
GPGPU-Sim uArch:   14  15  16  17  18  19  20
GPGPU-Sim uArch:   21  22  23  24  25  26  27
GPGPU-Sim uArch:   28  29  30  31  32  33  34
GPGPU-Sim uArch:   35  36  37  38  39  40  41
GPGPU-Sim uArch:   42  43  44  45  46  47  48
GPGPU-Sim uArch:   49  50  51  52  53  54  55
GPGPU-Sim uArch: interconnect node reverse map (icntID to shaderID+MemID)
GPGPU-Sim uArch: Memory nodes start from ID: 20
GPGPU-Sim uArch:    0   1   2   3   4   5   6
GPGPU-Sim uArch:    7   8   9  10  11  12  13
GPGPU-Sim uArch:   14  15  16  17  18  19  20
GPGPU-Sim uArch:   21  22  23  24  25  26  27
GPGPU-Sim uArch:   28  29  30  31  32  33  34
GPGPU-Sim uArch:   35  36  37  38  39  40  41
GPGPU-Sim uArch:   42  43  44  45  46  47  48
GPGPU-Sim uArch:   49  50  51  52  53  54  55
Simulation started at 2021-11-20, 12:43



CONFIG /home/jueonpark/cxl-simulator/sim_configs/GPU_1_Buffer_1/V100_downscaled_HBM2_PCI6x1/./memory_buffer_crossbar.icntLink latency: 2
Link latency: 2
GPGPU-Sim uArch: interconnect node map (shaderID+MemID to icntID)
GPGPU-Sim uArch: Memory nodes ID start from index: 1
GPGPU-Sim uArch:    0   1   2   3
GPGPU-Sim uArch:    4   5   6   7
GPGPU-Sim uArch:    8   9  10  11
GPGPU-Sim uArch:   12  13  14  15
GPGPU-Sim uArch:   16
GPGPU-Sim uArch: interconnect node reverse map (icntID to shaderID+MemID)
GPGPU-Sim uArch: Memory nodes start from ID: 1
GPGPU-Sim uArch:    0   1   2   3
GPGPU-Sim uArch:    4   5   6   7
GPGPU-Sim uArch:    8   9  10  11
GPGPU-Sim uArch:   12  13  14  15
GPGPU-Sim uArch:   16
SECTOR_SIZE 32
Ramulator instance name: CXL_0_ramulator_0
Memory instance will be instantiated
NDP kernel launch 0 ./traces/kernel-8157/GPU_0/_ON_THE_FLY_custom-call.74_fw_bert_output_ph3.traceg 1
[cxl_memory_buffer 0]	GPU 0 launnched NDP kernel ID 3473 :  _NDP_fw_bert_output_ph3
Gantt info: gpu 0 launched NDP kernel  _NDP_fw_bert_output_ph3 at cycle 0 to CXL 0
NDP function launched to 0
function launched to 0
[simd_unit 0]	SIMD0 SET_FILTER 1007fb0b790d700, c00000, [16,512,768,]ID: 0Total 3072

[simd_unit 0]	SIMD0 SET_FILTER 1007fb0b790d700, c00000, [16,512,768,]ID: 1Total 3072

[simd_unit 0]	SIMD0 SET_FILTER 1007fb0b790d700, c00000, [16,512,768,]ID: 2Total 3072

[simd_unit 0]	SIMD0 SET_FILTER 1007fb0b790d700, c00000, [16,512,768,]ID: 3Total 3072

[simd_unit 0]	SIMD0 SET_FILTER 1007fb0b790d700, c00000, [16,512,768,]ID: 4Total 3072

[simd_unit 0]	SIMD0 SET_FILTER 1007fb0b790d700, c00000, [16,512,768,]ID: 5Total 3072

[simd_unit 0]	SIMD0 SET_FILTER 1007fb0b790d700, c00000, [16,512,768,]ID: 6Total 3072

[simd_unit 0]	SIMD0 SET_FILTER 1007fb0b790d700, c00000, [16,512,768,]ID: 7Total 3072

[simd_unit 0]	SIMD0 SET_FILTER 1007fb0b790d700, c00000, [16,512,768,]ID: 8Total 3072

[simd_unit 0]	SIMD0 SET_FILTER 1007fb0b790d700, c00000, [16,512,768,]ID: 9Total 3072

[simd_unit 0]	SIMD0 SET_FILTER 1007fb0b790d700, c00000, [16,512,768,]ID: 10Total 3072

[simd_unit 0]	SIMD0 SET_FILTER 1007fb0b790d700, c00000, [16,512,768,]ID: 11Total 3072

[simd_unit 0]	SIMD0 SET_FILTER 1007fb0b790d700, c00000, [16,512,768,]ID: 12Total 3072

[simd_unit 0]	SIMD0 SET_FILTER 1007fb0b790d700, c00000, [16,512,768,]ID: 13Total 3072

[simd_unit 0]	SIMD0 SET_FILTER 1007fb0b790d700, c00000, [16,512,768,]ID: 14Total 3072

[simd_unit 0]	SIMD0 SET_FILTER 1007fb0b790d700, c00000, [16,512,768,]ID: 15Total 3072

NDP function launched to 0
[simd_unit 1]	SIMD1 SET_FILTER 1007fb0b790d700, c00000, [16,512,768,]ID: 0Total 3072

[simd_unit 1]	SIMD1 SET_FILTER 1007fb0b790d700, c00000, [16,512,768,]ID: 1Total 3072

[simd_unit 1]	SIMD1 SET_FILTER 1007fb0b790d700, c00000, [16,512,768,]ID: 2Total 3072

[simd_unit 1]	SIMD1 SET_FILTER 1007fb0b790d700, c00000, [16,512,768,]ID: 3Total 3072

[simd_unit 1]	SIMD1 SET_FILTER 1007fb0b790d700, c00000, [16,512,768,]ID: 4Total 3072

[simd_unit 1]	SIMD1 SET_FILTER 1007fb0b790d700, c00000, [16,512,768,]ID: 5Total 3072

[simd_unit 1]	SIMD1 SET_FILTER 1007fb0b790d700, c00000, [16,512,768,]ID: 6Total 3072

[simd_unit 1]	SIMD1 SET_FILTER 1007fb0b790d700, c00000, [16,512,768,]ID: 7Total 3072

[simd_unit 1]	SIMD1 SET_FILTER 1007fb0b790d700, c00000, [16,512,768,]ID: 8Total 3072

[simd_unit 1]	SIMD1 SET_FILTER 1007fb0b790d700, c00000, [16,512,768,]ID: 9Total 3072

[simd_unit 1]	SIMD1 SET_FILTER 1007fb0b790d700, c00000, [16,512,768,]ID: 10Total 3072

[simd_unit 1]	SIMD1 SET_FILTER 1007fb0b790d700, c00000, [16,512,768,]ID: 11Total 3072

[simd_unit 1]	SIMD1 SET_FILTER 1007fb0b790d700, c00000, [16,512,768,]ID: 12Total 3072

[simd_unit 1]	SIMD1 SET_FILTER 1007fb0b790d700, c00000, [16,512,768,]ID: 13Total 3072

[simd_unit 1]	SIMD1 SET_FILTER 1007fb0b790d700, c00000, [16,512,768,]ID: 14Total 3072

[simd_unit 1]	SIMD1 SET_FILTER 1007fb0b790d700, c00000, [16,512,768,]ID: 15Total 3072

NDP function launched to 0
[simd_unit 2]	SIMD2 SET_FILTER 1007fb0b790d700, c00000, [16,512,768,]ID: 0Total 3072

[simd_unit 2]	SIMD2 SET_FILTER 1007fb0b790d700, c00000, [16,512,768,]ID: 1Total 3072

[simd_unit 2]	SIMD2 SET_FILTER 1007fb0b790d700, c00000, [16,512,768,]ID: 2Total 3072

[simd_unit 2]	SIMD2 SET_FILTER 1007fb0b790d700, c00000, [16,512,768,]ID: 3Total 3072

[simd_unit 2]	SIMD2 SET_FILTER 1007fb0b790d700, c00000, [16,512,768,]ID: 4Total 3072

[simd_unit 2]	SIMD2 SET_FILTER 1007fb0b790d700, c00000, [16,512,768,]ID: 5Total 3072

[simd_unit 2]	SIMD2 SET_FILTER 1007fb0b790d700, c00000, [16,512,768,]ID: 6Total 3072

[simd_unit 2]	SIMD2 SET_FILTER 1007fb0b790d700, c00000, [16,512,768,]ID: 7Total 3072

[simd_unit 2]	SIMD2 SET_FILTER 1007fb0b790d700, c00000, [16,512,768,]ID: 8Total 3072

[simd_unit 2]	SIMD2 SET_FILTER 1007fb0b790d700, c00000, [16,512,768,]ID: 9Total 3072

[simd_unit 2]	SIMD2 SET_FILTER 1007fb0b790d700, c00000, [16,512,768,]ID: 10Total 3072

[simd_unit 2]	SIMD2 SET_FILTER 1007fb0b790d700, c00000, [16,512,768,]ID: 11Total 3072

[simd_unit 2]	SIMD2 SET_FILTER 1007fb0b790d700, c00000, [16,512,768,]ID: 12Total 3072

[simd_unit 2]	SIMD2 SET_FILTER 1007fb0b790d700, c00000, [16,512,768,]ID: 13Total 3072

[simd_unit 2]	SIMD2 SET_FILTER 1007fb0b790d700, c00000, [16,512,768,]ID: 14Total 3072

[simd_unit 2]	SIMD2 SET_FILTER 1007fb0b790d700, c00000, [16,512,768,]ID: 15Total 3072

NDP function launched to 0
[simd_unit 3]	SIMD3 SET_FILTER 1007fb0b790d700, c00000, [16,512,768,]ID: 0Total 3072

[simd_unit 3]	SIMD3 SET_FILTER 1007fb0b790d700, c00000, [16,512,768,]ID: 1Total 3072

[simd_unit 3]	SIMD3 SET_FILTER 1007fb0b790d700, c00000, [16,512,768,]ID: 2Total 3072

[simd_unit 3]	SIMD3 SET_FILTER 1007fb0b790d700, c00000, [16,512,768,]ID: 3Total 3072

[simd_unit 3]	SIMD3 SET_FILTER 1007fb0b790d700, c00000, [16,512,768,]ID: 4Total 3072

[simd_unit 3]	SIMD3 SET_FILTER 1007fb0b790d700, c00000, [16,512,768,]ID: 5Total 3072

[simd_unit 3]	SIMD3 SET_FILTER 1007fb0b790d700, c00000, [16,512,768,]ID: 6Total 3072

[simd_unit 3]	SIMD3 SET_FILTER 1007fb0b790d700, c00000, [16,512,768,]ID: 7Total 3072

[simd_unit 3]	SIMD3 SET_FILTER 1007fb0b790d700, c00000, [16,512,768,]ID: 8Total 3072

[simd_unit 3]	SIMD3 SET_FILTER 1007fb0b790d700, c00000, [16,512,768,]ID: 9Total 3072

[simd_unit 3]	SIMD3 SET_FILTER 1007fb0b790d700, c00000, [16,512,768,]ID: 10Total 3072

[simd_unit 3]	SIMD3 SET_FILTER 1007fb0b790d700, c00000, [16,512,768,]ID: 11Total 3072

[simd_unit 3]	SIMD3 SET_FILTER 1007fb0b790d700, c00000, [16,512,768,]ID: 12Total 3072

[simd_unit 3]	SIMD3 SET_FILTER 1007fb0b790d700, c00000, [16,512,768,]ID: 13Total 3072

[simd_unit 3]	SIMD3 SET_FILTER 1007fb0b790d700, c00000, [16,512,768,]ID: 14Total 3072

[simd_unit 3]	SIMD3 SET_FILTER 1007fb0b790d700, c00000, [16,512,768,]ID: 15Total 3072

NDP function launched to 0
[simd_unit 4]	SIMD4 SET_FILTER 1007fb0b790d700, c00000, [16,512,768,]ID: 0Total 3072

[simd_unit 4]	SIMD4 SET_FILTER 1007fb0b790d700, c00000, [16,512,768,]ID: 1Total 3072

[simd_unit 4]	SIMD4 SET_FILTER 1007fb0b790d700, c00000, [16,512,768,]ID: 2Total 3072

[simd_unit 4]	SIMD4 SET_FILTER 1007fb0b790d700, c00000, [16,512,768,]ID: 3Total 3072

[simd_unit 4]	SIMD4 SET_FILTER 1007fb0b790d700, c00000, [16,512,768,]ID: 4Total 3072

[simd_unit 4]	SIMD4 SET_FILTER 1007fb0b790d700, c00000, [16,512,768,]ID: 5Total 3072

[simd_unit 4]	SIMD4 SET_FILTER 1007fb0b790d700, c00000, [16,512,768,]ID: 6Total 3072

[simd_unit 4]	SIMD4 SET_FILTER 1007fb0b790d700, c00000, [16,512,768,]ID: 7Total 3072

[simd_unit 4]	SIMD4 SET_FILTER 1007fb0b790d700, c00000, [16,512,768,]ID: 8Total 3072

[simd_unit 4]	SIMD4 SET_FILTER 1007fb0b790d700, c00000, [16,512,768,]ID: 9Total 3072

[simd_unit 4]	SIMD4 SET_FILTER 1007fb0b790d700, c00000, [16,512,768,]ID: 10Total 3072

[simd_unit 4]	SIMD4 SET_FILTER 1007fb0b790d700, c00000, [16,512,768,]ID: 11Total 3072

[simd_unit 4]	SIMD4 SET_FILTER 1007fb0b790d700, c00000, [16,512,768,]ID: 12Total 3072

[simd_unit 4]	SIMD4 SET_FILTER 1007fb0b790d700, c00000, [16,512,768,]ID: 13Total 3072

[simd_unit 4]	SIMD4 SET_FILTER 1007fb0b790d700, c00000, [16,512,768,]ID: 14Total 3072

[simd_unit 4]	SIMD4 SET_FILTER 1007fb0b790d700, c00000, [16,512,768,]ID: 15Total 3072

NDP function launched to 0
[simd_unit 5]	SIMD5 SET_FILTER 1007fb0b790d700, c00000, [16,512,768,]ID: 0Total 3072

[simd_unit 5]	SIMD5 SET_FILTER 1007fb0b790d700, c00000, [16,512,768,]ID: 1Total 3072

[simd_unit 5]	SIMD5 SET_FILTER 1007fb0b790d700, c00000, [16,512,768,]ID: 2Total 3072

[simd_unit 5]	SIMD5 SET_FILTER 1007fb0b790d700, c00000, [16,512,768,]ID: 3Total 3072

[simd_unit 5]	SIMD5 SET_FILTER 1007fb0b790d700, c00000, [16,512,768,]ID: 4Total 3072

[simd_unit 5]	SIMD5 SET_FILTER 1007fb0b790d700, c00000, [16,512,768,]ID: 5Total 3072

[simd_unit 5]	SIMD5 SET_FILTER 1007fb0b790d700, c00000, [16,512,768,]ID: 6Total 3072

[simd_unit 5]	SIMD5 SET_FILTER 1007fb0b790d700, c00000, [16,512,768,]ID: 7Total 3072

[simd_unit 5]	SIMD5 SET_FILTER 1007fb0b790d700, c00000, [16,512,768,]ID: 8Total 3072

[simd_unit 5]	SIMD5 SET_FILTER 1007fb0b790d700, c00000, [16,512,768,]ID: 9Total 3072

[simd_unit 5]	SIMD5 SET_FILTER 1007fb0b790d700, c00000, [16,512,768,]ID: 10Total 3072

[simd_unit 5]	SIMD5 SET_FILTER 1007fb0b790d700, c00000, [16,512,768,]ID: 11Total 3072

[simd_unit 5]	SIMD5 SET_FILTER 1007fb0b790d700, c00000, [16,512,768,]ID: 12Total 3072

[simd_unit 5]	SIMD5 SET_FILTER 1007fb0b790d700, c00000, [16,512,768,]ID: 13Total 3072

[simd_unit 5]	SIMD5 SET_FILTER 1007fb0b790d700, c00000, [16,512,768,]ID: 14Total 3072

[simd_unit 5]	SIMD5 SET_FILTER 1007fb0b790d700, c00000, [16,512,768,]ID: 15Total 3072

NDP function launched to 0
[simd_unit 6]	SIMD6 SET_FILTER 1007fb0b790d700, c00000, [16,512,768,]ID: 0Total 3072

[simd_unit 6]	SIMD6 SET_FILTER 1007fb0b790d700, c00000, [16,512,768,]ID: 1Total 3072

[simd_unit 6]	SIMD6 SET_FILTER 1007fb0b790d700, c00000, [16,512,768,]ID: 2Total 3072

[simd_unit 6]	SIMD6 SET_FILTER 1007fb0b790d700, c00000, [16,512,768,]ID: 3Total 3072

[simd_unit 6]	SIMD6 SET_FILTER 1007fb0b790d700, c00000, [16,512,768,]ID: 4Total 3072

[simd_unit 6]	SIMD6 SET_FILTER 1007fb0b790d700, c00000, [16,512,768,]ID: 5Total 3072

[simd_unit 6]	SIMD6 SET_FILTER 1007fb0b790d700, c00000, [16,512,768,]ID: 6Total 3072

[simd_unit 6]	SIMD6 SET_FILTER 1007fb0b790d700, c00000, [16,512,768,]ID: 7Total 3072

[simd_unit 6]	SIMD6 SET_FILTER 1007fb0b790d700, c00000, [16,512,768,]ID: 8Total 3072

[simd_unit 6]	SIMD6 SET_FILTER 1007fb0b790d700, c00000, [16,512,768,]ID: 9Total 3072

[simd_unit 6]	SIMD6 SET_FILTER 1007fb0b790d700, c00000, [16,512,768,]ID: 10Total 3072

[simd_unit 6]	SIMD6 SET_FILTER 1007fb0b790d700, c00000, [16,512,768,]ID: 11Total 3072

[simd_unit 6]	SIMD6 SET_FILTER 1007fb0b790d700, c00000, [16,512,768,]ID: 12Total 3072

[simd_unit 6]	SIMD6 SET_FILTER 1007fb0b790d700, c00000, [16,512,768,]ID: 13Total 3072

[simd_unit 6]	SIMD6 SET_FILTER 1007fb0b790d700, c00000, [16,512,768,]ID: 14Total 3072

[simd_unit 6]	SIMD6 SET_FILTER 1007fb0b790d700, c00000, [16,512,768,]ID: 15Total 3072

NDP function launched to 0
[simd_unit 7]	SIMD7 SET_FILTER 1007fb0b790d700, c00000, [16,512,768,]ID: 0Total 3072

[simd_unit 7]	SIMD7 SET_FILTER 1007fb0b790d700, c00000, [16,512,768,]ID: 1Total 3072

[simd_unit 7]	SIMD7 SET_FILTER 1007fb0b790d700, c00000, [16,512,768,]ID: 2Total 3072

[simd_unit 7]	SIMD7 SET_FILTER 1007fb0b790d700, c00000, [16,512,768,]ID: 3Total 3072

[simd_unit 7]	SIMD7 SET_FILTER 1007fb0b790d700, c00000, [16,512,768,]ID: 4Total 3072

[simd_unit 7]	SIMD7 SET_FILTER 1007fb0b790d700, c00000, [16,512,768,]ID: 5Total 3072

[simd_unit 7]	SIMD7 SET_FILTER 1007fb0b790d700, c00000, [16,512,768,]ID: 6Total 3072

[simd_unit 7]	SIMD7 SET_FILTER 1007fb0b790d700, c00000, [16,512,768,]ID: 7Total 3072

[simd_unit 7]	SIMD7 SET_FILTER 1007fb0b790d700, c00000, [16,512,768,]ID: 8Total 3072

[simd_unit 7]	SIMD7 SET_FILTER 1007fb0b790d700, c00000, [16,512,768,]ID: 9Total 3072

[simd_unit 7]	SIMD7 SET_FILTER 1007fb0b790d700, c00000, [16,512,768,]ID: 10Total 3072

[simd_unit 7]	SIMD7 SET_FILTER 1007fb0b790d700, c00000, [16,512,768,]ID: 11Total 3072

[simd_unit 7]	SIMD7 SET_FILTER 1007fb0b790d700, c00000, [16,512,768,]ID: 12Total 3072

[simd_unit 7]	SIMD7 SET_FILTER 1007fb0b790d700, c00000, [16,512,768,]ID: 13Total 3072

[simd_unit 7]	SIMD7 SET_FILTER 1007fb0b790d700, c00000, [16,512,768,]ID: 14Total 3072

[simd_unit 7]	SIMD7 SET_FILTER 1007fb0b790d700, c00000, [16,512,768,]ID: 15Total 3072

Processing kernel ./traces/kernel-8157/GPU_0/kernel-8157.traceg
-act_gpu_addr = 0x7fb0b790d700
-act_cxl_addr = 0x1007fb0b790d700
-act_size = 12582912
-kernel name = turing_fp16_s1688gemm_fp16_128x128_ldg8_f2f_nn
-kernel id = 8157
-grid dim = (24,64,1)
-block dim = (128,1,1)
-shmem = 32768
-nregs = 246
-binary version = 75
-cuda stream id = 1731040
-shmem base_addr = 0x00007fb3e6000000
-local mem base_addr = 0x00007fb3e4000000
-nvbit version = 1.5.3
-accelsim tracer version = 3
Gantt info: gpu 0 launched gpu kernel turing_fp16_s1688gemm_fp16_128x128_ldg8_f2f_nn at cycle 0
LINK_UTIL GPU: 0Port: 0 From GPU to CXL: 0 %  From CXL to GPU: 0 %
LINK_UTIL GPU: 0Port: 0 From GPU to CXL: 0 %  From CXL to GPU: 0 %
LINK_UTIL GPU: 0Port: 0 From GPU to CXL: 0 %  From CXL to GPU: 0 %
LINK_UTIL GPU: 0Port: 0 From GPU to CXL: 0 %  From CXL to GPU: 0 %
LINK_UTIL GPU: 0Port: 0 From GPU to CXL: 0 %  From CXL to GPU: 0 %
LINK_UTIL GPU: 0Port: 0 From GPU to CXL: 0 %  From CXL to GPU: 0 %
LINK_UTIL GPU: 0Port: 0 From GPU to CXL: 0 %  From CXL to GPU: 0 %
GPGPU-Sim uArch: GPU 0 Shader 0 bind to kernel 1 'turing_fp16_s1688gemm_fp16_128x128_ldg8_f2f_nn'
GPGPU-Sim: Reconfigure L1 cache to 64KB
GPU 0 thread block = 0,0,0
GPGPU-Sim uArch: GPU 0 Shader 1 bind to kernel 1 'turing_fp16_s1688gemm_fp16_128x128_ldg8_f2f_nn'
GPU 0 thread block = 1,0,0
GPGPU-Sim uArch: GPU 0 Shader 2 bind to kernel 1 'turing_fp16_s1688gemm_fp16_128x128_ldg8_f2f_nn'
GPU 0 thread block = 2,0,0
GPGPU-Sim uArch: GPU 0 Shader 3 bind to kernel 1 'turing_fp16_s1688gemm_fp16_128x128_ldg8_f2f_nn'
GPU 0 thread block = 3,0,0
GPGPU-Sim uArch: GPU 0 Shader 4 bind to kernel 1 'turing_fp16_s1688gemm_fp16_128x128_ldg8_f2f_nn'
GPU 0 thread block = 4,0,0
GPGPU-Sim uArch: GPU 0 Shader 5 bind to kernel 1 'turing_fp16_s1688gemm_fp16_128x128_ldg8_f2f_nn'
GPU 0 thread block = 5,0,0
GPGPU-Sim uArch: GPU 0 Shader 6 bind to kernel 1 'turing_fp16_s1688gemm_fp16_128x128_ldg8_f2f_nn'
GPU 0 thread block = 6,0,0
GPGPU-Sim uArch: GPU 0 Shader 7 bind to kernel 1 'turing_fp16_s1688gemm_fp16_128x128_ldg8_f2f_nn'
GPU 0 thread block = 7,0,0
GPGPU-Sim uArch: GPU 0 Shader 8 bind to kernel 1 'turing_fp16_s1688gemm_fp16_128x128_ldg8_f2f_nn'
GPU 0 thread block = 8,0,0
GPGPU-Sim uArch: GPU 0 Shader 9 bind to kernel 1 'turing_fp16_s1688gemm_fp16_128x128_ldg8_f2f_nn'
GPU 0 thread block = 9,0,0
GPGPU-Sim uArch: GPU 0 Shader 10 bind to kernel 1 'turing_fp16_s1688gemm_fp16_128x128_ldg8_f2f_nn'
GPU 0 thread block = 10,0,0
GPGPU-Sim uArch: GPU 0 Shader 11 bind to kernel 1 'turing_fp16_s1688gemm_fp16_128x128_ldg8_f2f_nn'
GPU 0 thread block = 11,0,0
GPGPU-Sim uArch: GPU 0 Shader 12 bind to kernel 1 'turing_fp16_s1688gemm_fp16_128x128_ldg8_f2f_nn'
GPU 0 thread block = 12,0,0
GPGPU-Sim uArch: GPU 0 Shader 13 bind to kernel 1 'turing_fp16_s1688gemm_fp16_128x128_ldg8_f2f_nn'
GPU 0 thread block = 13,0,0
GPGPU-Sim uArch: GPU 0 Shader 14 bind to kernel 1 'turing_fp16_s1688gemm_fp16_128x128_ldg8_f2f_nn'
GPU 0 thread block = 14,0,0
GPGPU-Sim uArch: GPU 0 Shader 15 bind to kernel 1 'turing_fp16_s1688gemm_fp16_128x128_ldg8_f2f_nn'
GPU 0 thread block = 15,0,0
GPGPU-Sim uArch: GPU 0 Shader 16 bind to kernel 1 'turing_fp16_s1688gemm_fp16_128x128_ldg8_f2f_nn'
GPU 0 thread block = 16,0,0
GPGPU-Sim uArch: GPU 0 Shader 17 bind to kernel 1 'turing_fp16_s1688gemm_fp16_128x128_ldg8_f2f_nn'
GPU 0 thread block = 17,0,0
GPGPU-Sim uArch: GPU 0 Shader 18 bind to kernel 1 'turing_fp16_s1688gemm_fp16_128x128_ldg8_f2f_nn'
GPU 0 thread block = 18,0,0
GPGPU-Sim uArch: GPU 0 Shader 19 bind to kernel 1 'turing_fp16_s1688gemm_fp16_128x128_ldg8_f2f_nn'
GPU 0 thread block = 19,0,0
GPU 0 thread block = 20,0,0
GPU 0 thread block = 21,0,0
GPU 0 thread block = 22,0,0
GPU 0 thread block = 23,0,0
GPU 0 thread block = 0,1,0
GPU 0 thread block = 1,1,0
GPU 0 thread block = 2,1,0
GPU 0 thread block = 3,1,0
GPU 0 thread block = 4,1,0
GPU 0 thread block = 5,1,0
GPU 0 thread block = 6,1,0
GPU 0 thread block = 7,1,0
GPU 0 thread block = 8,1,0
GPU 0 thread block = 9,1,0
GPU 0 thread block = 10,1,0
GPU 0 thread block = 11,1,0
GPU 0 thread block = 12,1,0
GPU 0 thread block = 13,1,0
GPU 0 thread block = 14,1,0
GPU 0 thread block = 15,1,0
LINK_UTIL GPU: 0Port: 0 From GPU to CXL: 0 %  From CXL to GPU: 0 %
INITIALIZER 
INITIALIZER 
INITIALIZER 
INITIALIZER 
INITIALIZER 
INITIALIZER 
INITIALIZER 
INITIALIZER 
LINK_UTIL GPU: 0Port: 0 From GPU to CXL: 0.34 %  From CXL to GPU: 25.5 %
LINK_UTIL GPU: 0Port: 0 From GPU to CXL: 0.61 %  From CXL to GPU: 62.45 %
LINK_UTIL GPU: 0Port: 0 From GPU to CXL: 0.01 %  From CXL to GPU: 63.05 %
LINK_UTIL GPU: 0Port: 0 From GPU to CXL: 0 %  From CXL to GPU: 62.3 %
LINK_UTIL GPU: 0Port: 0 From GPU to CXL: 0 %  From CXL to GPU: 62.1 %
LINK_UTIL GPU: 0Port: 0 From GPU to CXL: 0 %  From CXL to GPU: 62.5 %
LINK_UTIL GPU: 0Port: 0 From GPU to CXL: 0 %  From CXL to GPU: 62.75 %
LINK_UTIL GPU: 0Port: 0 From GPU to CXL: 0 %  From CXL to GPU: 62.65 %
CXL_0_ramulator_0 channel 0 1540 reqs
CXL_0_ramulator_0 channel 1 1540 reqs
CXL_0_ramulator_0 channel 2 1540 reqs
CXL_0_ramulator_0 channel 3 1540 reqs
CXL_0_ramulator_0 channel 4 1540 reqs
CXL_0_ramulator_0 channel 5 1540 reqs
CXL_0_ramulator_0 channel 6 1540 reqs
CXL_0_ramulator_0 channel 7 1540 reqs
LINK_UTIL GPU: 0Port: 0 From GPU to CXL: 0 %  From CXL to GPU: 62.15 %
LINK_UTIL GPU: 0Port: 0 From GPU to CXL: 0 %  From CXL to GPU: 62.55 %
LINK_UTIL GPU: 0Port: 0 From GPU to CXL: 0 %  From CXL to GPU: 26.4 %
LINK_UTIL GPU: 0Port: 0 From GPU to CXL: 0 %  From CXL to GPU: 0 %
GPU_ramulator_0 channel 0 1636 reqs
GPU_ramulator_1 channel 0 1652 reqs
GPU_ramulator_2 channel 0 1628 reqs
GPU_ramulator_3 channel 0 1632 reqs
GPU_ramulator_4 channel 0 1632 reqs
GPU_ramulator_5 channel 0 1645 reqs
GPU_ramulator_6 channel 0 1648 reqs
GPU_ramulator_7 channel 0 1630 reqs
LINK_UTIL GPU: 0Port: 0 From GPU to CXL: 0 %  From CXL to GPU: 0 %
LINK_UTIL GPU: 0Port: 0 From GPU to CXL: 0 %  From CXL to GPU: 0 %
LINK_UTIL GPU: 0Port: 0 From GPU to CXL: 0 %  From CXL to GPU: 0 %
LINK_UTIL GPU: 0Port: 0 From GPU to CXL: 0 %  From CXL to GPU: 0 %
LINK_UTIL GPU: 0Port: 0 From GPU to CXL: 0 %  From CXL to GPU: 0 %
LINK_UTIL GPU: 0Port: 0 From GPU to CXL: 0 %  From CXL to GPU: 0 %
LINK_UTIL GPU: 0Port: 0 From GPU to CXL: 0 %  From CXL to GPU: 0 %
LINK_UTIL GPU: 0Port: 0 From GPU to CXL: 0 %  From CXL to GPU: 0 %
LINK_UTIL GPU: 0Port: 0 From GPU to CXL: 0 %  From CXL to GPU: 0 %
LINK_UTIL GPU: 0Port: 0 From GPU to CXL: 0 %  From CXL to GPU: 0 %
LINK_UTIL GPU: 0Port: 0 From GPU to CXL: 0 %  From CXL to GPU: 0 %
LINK_UTIL GPU: 0Port: 0 From GPU to CXL: 0 %  From CXL to GPU: 0 %
CXL_0_ramulator_0 channel 0 0 reqs
CXL_0_ramulator_0 channel 1 0 reqs
CXL_0_ramulator_0 channel 2 0 reqs
CXL_0_ramulator_0 channel 3 0 reqs
CXL_0_ramulator_0 channel 4 0 reqs
CXL_0_ramulator_0 channel 5 0 reqs
CXL_0_ramulator_0 channel 6 0 reqs
CXL_0_ramulator_0 channel 7 0 reqs
LINK_UTIL GPU: 0Port: 0 From GPU to CXL: 0 %  From CXL to GPU: 0 %
LINK_UTIL GPU: 0Port: 0 From GPU to CXL: 0 %  From CXL to GPU: 0 %
LINK_UTIL GPU: 0Port: 0 From GPU to CXL: 0 %  From CXL to GPU: 0 %
LINK_UTIL GPU: 0Port: 0 From GPU to CXL: 0 %  From CXL to GPU: 0 %
LINK_UTIL GPU: 0Port: 0 From GPU to CXL: 0 %  From CXL to GPU: 0 %
LINK_UTIL GPU: 0Port: 0 From GPU to CXL: 0 %  From CXL to GPU: 0 %
LINK_UTIL GPU: 0Port: 0 From GPU to CXL: 0 %  From CXL to GPU: 0 %
LINK_UTIL GPU: 0Port: 0 From GPU to CXL: 0 %  From CXL to GPU: 0 %
GPU_ramulator_0 channel 0 5730 reqs
GPU_ramulator_1 channel 0 5960 reqs
GPU_ramulator_2 channel 0 5634 reqs
GPU_ramulator_3 channel 0 5504 reqs
GPU_ramulator_4 channel 0 5594 reqs
GPU_ramulator_5 channel 0 5834 reqs
GPU_ramulator_6 channel 0 6021 reqs
GPU_ramulator_7 channel 0 6098 reqs
LINK_UTIL GPU: 0Port: 0 From GPU to CXL: 0 %  From CXL to GPU: 0 %
LINK_UTIL GPU: 0Port: 0 From GPU to CXL: 0 %  From CXL to GPU: 0 %
LINK_UTIL GPU: 0Port: 0 From GPU to CXL: 0 %  From CXL to GPU: 0 %
LINK_UTIL GPU: 0Port: 0 From GPU to CXL: 0 %  From CXL to GPU: 0 %
LINK_UTIL GPU: 0Port: 0 From GPU to CXL: 0 %  From CXL to GPU: 0 %
LINK_UTIL GPU: 0Port: 0 From GPU to CXL: 0 %  From CXL to GPU: 0 %
LINK_UTIL GPU: 0Port: 0 From GPU to CXL: 0 %  From CXL to GPU: 0 %
LINK_UTIL GPU: 0Port: 0 From GPU to CXL: 0 %  From CXL to GPU: 0 %
CXL_0_ramulator_0 channel 0 0 reqs
CXL_0_ramulator_0 channel 1 0 reqs
CXL_0_ramulator_0 channel 2 0 reqs
CXL_0_ramulator_0 channel 3 0 reqs
CXL_0_ramulator_0 channel 4 0 reqs
CXL_0_ramulator_0 channel 5 0 reqs
CXL_0_ramulator_0 channel 6 0 reqs
CXL_0_ramulator_0 channel 7 0 reqs
LINK_UTIL GPU: 0Port: 0 From GPU to CXL: 0 %  From CXL to GPU: 0 %
LINK_UTIL GPU: 0Port: 0 From GPU to CXL: 0 %  From CXL to GPU: 0 %
LINK_UTIL GPU: 0Port: 0 From GPU to CXL: 0 %  From CXL to GPU: 0 %
LINK_UTIL GPU: 0Port: 0 From GPU to CXL: 0 %  From CXL to GPU: 0 %
LINK_UTIL GPU: 0Port: 0 From GPU to CXL: 0 %  From CXL to GPU: 0 %
LINK_UTIL GPU: 0Port: 0 From GPU to CXL: 0 %  From CXL to GPU: 0 %
LINK_UTIL GPU: 0Port: 0 From GPU to CXL: 0 %  From CXL to GPU: 0 %
LINK_UTIL GPU: 0Port: 0 From GPU to CXL: 0 %  From CXL to GPU: 0 %
LINK_UTIL GPU: 0Port: 0 From GPU to CXL: 0 %  From CXL to GPU: 0 %
LINK_UTIL GPU: 0Port: 0 From GPU to CXL: 0 %  From CXL to GPU: 0 %
LINK_UTIL GPU: 0Port: 0 From GPU to CXL: 0 %  From CXL to GPU: 0 %
LINK_UTIL GPU: 0Port: 0 From GPU to CXL: 0 %  From CXL to GPU: 0 %
LINK_UTIL GPU: 0Port: 0 From GPU to CXL: 0 %  From CXL to GPU: 0 %
GPU_ramulator_0 channel 0 6547 reqs
GPU_ramulator_1 channel 0 6465 reqs
GPU_ramulator_2 channel 0 6252 reqs
GPU_ramulator_3 channel 0 6041 reqs
GPU_ramulator_4 channel 0 6658 reqs
GPU_ramulator_5 channel 0 6800 reqs
GPU_ramulator_6 channel 0 6810 reqs
GPU_ramulator_7 channel 0 6807 reqs
LINK_UTIL GPU: 0Port: 0 From GPU to CXL: 0 %  From CXL to GPU: 0 %
LINK_UTIL GPU: 0Port: 0 From GPU to CXL: 0 %  From CXL to GPU: 0 %
LINK_UTIL GPU: 0Port: 0 From GPU to CXL: 0 %  From CXL to GPU: 0 %
CXL_0_ramulator_0 channel 0 0 reqs
CXL_0_ramulator_0 channel 1 0 reqs
CXL_0_ramulator_0 channel 2 0 reqs
CXL_0_ramulator_0 channel 3 0 reqs
CXL_0_ramulator_0 channel 4 0 reqs
CXL_0_ramulator_0 channel 5 0 reqs
CXL_0_ramulator_0 channel 6 0 reqs
CXL_0_ramulator_0 channel 7 0 reqs
LINK_UTIL GPU: 0Port: 0 From GPU to CXL: 0 %  From CXL to GPU: 0 %
LINK_UTIL GPU: 0Port: 0 From GPU to CXL: 0 %  From CXL to GPU: 0 %
LINK_UTIL GPU: 0Port: 0 From GPU to CXL: 0 %  From CXL to GPU: 0 %
LINK_UTIL GPU: 0Port: 0 From GPU to CXL: 0 %  From CXL to GPU: 0 %
LINK_UTIL GPU: 0Port: 0 From GPU to CXL: 0 %  From CXL to GPU: 0 %
LINK_UTIL GPU: 0Port: 0 From GPU to CXL: 0 %  From CXL to GPU: 0 %
LINK_UTIL GPU: 0Port: 0 From GPU to CXL: 0 %  From CXL to GPU: 0 %
LINK_UTIL GPU: 0Port: 0 From GPU to CXL: 0 %  From CXL to GPU: 0 %
LINK_UTIL GPU: 0Port: 0 From GPU to CXL: 0 %  From CXL to GPU: 0 %
LINK_UTIL GPU: 0Port: 0 From GPU to CXL: 0 %  From CXL to GPU: 0 %
LINK_UTIL GPU: 0Port: 0 From GPU to CXL: 0 %  From CXL to GPU: 0 %
LINK_UTIL GPU: 0Port: 0 From GPU to CXL: 0 %  From CXL to GPU: 0 %
LINK_UTIL GPU: 0Port: 0 From GPU to CXL: 0 %  From CXL to GPU: 0 %
LINK_UTIL GPU: 0Port: 0 From GPU to CXL: 0 %  From CXL to GPU: 0 %
LINK_UTIL GPU: 0Port: 0 From GPU to CXL: 0 %  From CXL to GPU: 0 %
LINK_UTIL GPU: 0Port: 0 From GPU to CXL: 0 %  From CXL to GPU: 0 %
CXL_0_ramulator_0 channel 0 0 reqs
CXL_0_ramulator_0 channel 1 0 reqs
CXL_0_ramulator_0 channel 2 0 reqs
CXL_0_ramulator_0 channel 3 0 reqs
CXL_0_ramulator_0 channel 4 0 reqs
CXL_0_ramulator_0 channel 5 0 reqs
CXL_0_ramulator_0 channel 6 0 reqs
CXL_0_ramulator_0 channel 7 0 reqs
LINK_UTIL GPU: 0Port: 0 From GPU to CXL: 0 %  From CXL to GPU: 0 %
GPU_ramulator_0 channel 0 6303 reqs
GPU_ramulator_1 channel 0 6264 reqs
GPU_ramulator_2 channel 0 6213 reqs
GPU_ramulator_3 channel 0 6294 reqs
GPU_ramulator_4 channel 0 6171 reqs
GPU_ramulator_5 channel 0 6178 reqs
GPU_ramulator_6 channel 0 6331 reqs
GPU_ramulator_7 channel 0 6235 reqs
LINK_UTIL GPU: 0Port: 0 From GPU to CXL: 0 %  From CXL to GPU: 0 %
LINK_UTIL GPU: 0Port: 0 From GPU to CXL: 0 %  From CXL to GPU: 0 %
LINK_UTIL GPU: 0Port: 0 From GPU to CXL: 0 %  From CXL to GPU: 0 %
LINK_UTIL GPU: 0Port: 0 From GPU to CXL: 0 %  From CXL to GPU: 0 %
LINK_UTIL GPU: 0Port: 0 From GPU to CXL: 0 %  From CXL to GPU: 0 %
GPU 0 thread block = 16,1,0
LINK_UTIL GPU: 0Port: 0 From GPU to CXL: 0 %  From CXL to GPU: 0 %
GPU 0 thread block = 17,1,0
GPU 0 thread block = 18,1,0
GPU 0 thread block = 19,1,0
LINK_UTIL GPU: 0Port: 0 From GPU to CXL: 0 %  From CXL to GPU: 0 %
LINK_UTIL GPU: 0Port: 0 From GPU to CXL: 0 %  From CXL to GPU: 0 %
GPU 0 thread block = 20,1,0
GPU 0 thread block = 21,1,0
LINK_UTIL GPU: 0Port: 0 From GPU to CXL: 0 %  From CXL to GPU: 0 %
GPU 0 thread block = 22,1,0


7/1536 thread blocks finished
Elapsed time: 0 h, 1 min
Expected remaining time: 3 h, 38 min


GPU 0 thread block = 23,1,0
LINK_UTIL GPU: 0Port: 0 From GPU to CXL: 0 %  From CXL to GPU: 0 %
LINK_UTIL GPU: 0Port: 0 From GPU to CXL: 0.01 %  From CXL to GPU: 2.45 %
LINK_UTIL GPU: 0Port: 0 From GPU to CXL: 0 %  From CXL to GPU: 3.95 %
LINK_UTIL GPU: 0Port: 0 From GPU to CXL: 0 %  From CXL to GPU: 0 %
LINK_UTIL GPU: 0Port: 0 From GPU to CXL: 0 %  From CXL to GPU: 0 %
LINK_UTIL GPU: 0Port: 0 From GPU to CXL: 0 %  From CXL to GPU: 0 %
CXL_0_ramulator_0 channel 0 16 reqs
CXL_0_ramulator_0 channel 1 16 reqs
CXL_0_ramulator_0 channel 2 16 reqs
CXL_0_ramulator_0 channel 3 16 reqs
CXL_0_ramulator_0 channel 4 16 reqs
CXL_0_ramulator_0 channel 5 16 reqs
CXL_0_ramulator_0 channel 6 16 reqs
CXL_0_ramulator_0 channel 7 16 reqs
LINK_UTIL GPU: 0Port: 0 From GPU to CXL: 0 %  From CXL to GPU: 0 %
GPU 0 thread block = 0,2,0
GPU 0 thread block = 1,2,0
LINK_UTIL GPU: 0Port: 0 From GPU to CXL: 0 %  From CXL to GPU: 0 %
GPU 0 thread block = 2,2,0
GPU 0 thread block = 3,2,0
GPU 0 thread block = 4,2,0
GPU 0 thread block = 5,2,0
LINK_UTIL GPU: 0Port: 0 From GPU to CXL: 0 %  From CXL to GPU: 0 %
GPU 0 thread block = 6,2,0
GPU 0 thread block = 7,2,0
GPU 0 thread block = 8,2,0
GPU 0 thread block = 9,2,0
GPU 0 thread block = 10,2,0
GPU 0 thread block = 11,2,0
GPU 0 thread block = 12,2,0
LINK_UTIL GPU: 0Port: 0 From GPU to CXL: 0.24 %  From CXL to GPU: 56.5 %
GPU 0 thread block = 13,2,0
GPU 0 thread block = 14,2,0
LINK_UTIL GPU: 0Port: 0 From GPU to CXL: 0.23 %  From CXL to GPU: 62.75 %
GPU 0 thread block = 15,2,0
GPU_ramulator_0 channel 0 5746 reqs
GPU_ramulator_1 channel 0 5755 reqs
GPU_ramulator_2 channel 0 5727 reqs
GPU_ramulator_3 channel 0 5706 reqs
GPU_ramulator_4 channel 0 5835 reqs
GPU_ramulator_5 channel 0 5869 reqs
GPU_ramulator_6 channel 0 5577 reqs
GPU_ramulator_7 channel 0 5716 reqs
GPU 0 thread block = 16,2,0
GPU 0 thread block = 17,2,0
GPU 0 thread block = 18,2,0
GPU 0 thread block = 19,2,0
LINK_UTIL GPU: 0Port: 0 From GPU to CXL: 0 %  From CXL to GPU: 62.55 %
GPU 0 thread block = 20,2,0
GPU 0 thread block = 21,2,0
GPU 0 thread block = 22,2,0
GPU 0 thread block = 23,2,0
LINK_UTIL GPU: 0Port: 0 From GPU to CXL: 0 %  From CXL to GPU: 62.2 %


32/1536 thread blocks finished
Elapsed time: 0 h, 1 min
Expected remaining time: 0 h, 47 min


GPU 0 thread block = 0,3,0
GPU 0 thread block = 1,3,0
LINK_UTIL GPU: 0Port: 0 From GPU to CXL: 0 %  From CXL to GPU: 56.8 %
1134833 src 36 dest 31WARNING: Possible network deadlock.
LINK_UTIL GPU: 0Port: 0 From GPU to CXL: 0 %  From CXL to GPU: 0 %
GPU 0 thread block = 2,3,0
LINK_UTIL GPU: 0Port: 0 From GPU to CXL: 0.22 %  From CXL to GPU: 25.4 %
SIMD 0 FINALIZER 3072/3072 
SIMD 1 FINALIZER 3072/3072 
SIMD 2 FINALIZER 3072/3072 
SIMD 3 FINALIZER 3072/3072 
SIMD 4 FINALIZER 3072/3072 
SIMD 5 FINALIZER 3072/3072 
SIMD 6 FINALIZER 3072/3072 
SIMD 7 FINALIZER 3072/3072 
LINK_UTIL GPU: 0Port: 0 From GPU to CXL: 0.26 %  From CXL to GPU: 62.2 %
GPU 0 thread block = 3,3,0
EXIT simd 0, 31 1function slot 0, finish counter 16
EXIT simd 1, 31 1function slot 0, finish counter 16
EXIT simd 2, 31 1function slot 0, finish counter 16
EXIT simd 3, 31 1function slot 0, finish counter 16
EXIT simd 4, 31 1function slot 0, finish counter 16
EXIT simd 5, 31 1function slot 0, finish counter 16
EXIT simd 6, 31 1function slot 0, finish counter 16
EXIT simd 7, 31 1function slot 0, finish counter 16
GPU 0 thread block = 4,3,0
LINK_UTIL GPU: 0Port: 0 From GPU to CXL: 0 %  From CXL to GPU: 62.45 %
LINK_UTIL GPU: 0Port: 0 From GPU to CXL: 0 %  From CXL to GPU: 62.65 %
GPU 0 thread block = 5,3,0
LINK_UTIL GPU: 0Port: 0 From GPU to CXL: 0 %  From CXL to GPU: 62.65 %
GPU 0 thread block = 6,3,0
LINK_UTIL GPU: 0Port: 0 From GPU to CXL: 0 %  From CXL to GPU: 31.85 %
LINK_UTIL GPU: 0Port: 0 From GPU to CXL: 0 %  From CXL to GPU: 0 %
CXL_0_ramulator_0 channel 0 1520 reqs
CXL_0_ramulator_0 channel 1 1520 reqs
CXL_0_ramulator_0 channel 2 1520 reqs
CXL_0_ramulator_0 channel 3 1520 reqs
CXL_0_ramulator_0 channel 4 1520 reqs
CXL_0_ramulator_0 channel 5 1520 reqs
CXL_0_ramulator_0 channel 6 1520 reqs
CXL_0_ramulator_0 channel 7 1520 reqs
LINK_UTIL GPU: 0Port: 0 From GPU to CXL: 0 %  From CXL to GPU: 0 %
GPU 0 thread block = 7,3,0
LINK_UTIL GPU: 0Port: 0 From GPU to CXL: 0 %  From CXL to GPU: 0 %
LINK_UTIL GPU: 0Port: 0 From GPU to CXL: 0 %  From CXL to GPU: 0 %


40/1536 thread blocks finished
Elapsed time: 0 h, 2 min
Expected remaining time: 1 h, 14 min


LINK_UTIL GPU: 0Port: 0 From GPU to CXL: 0 %  From CXL to GPU: 0 %
LINK_UTIL GPU: 0Port: 0 From GPU to CXL: 0 %  From CXL to GPU: 0 %
LINK_UTIL GPU: 0Port: 0 From GPU to CXL: 0 %  From CXL to GPU: 0 %
LINK_UTIL GPU: 0Port: 0 From GPU to CXL: 0 %  From CXL to GPU: 0 %
LINK_UTIL GPU: 0Port: 0 From GPU to CXL: 0 %  From CXL to GPU: 0 %
LINK_UTIL GPU: 0Port: 0 From GPU to CXL: 0 %  From CXL to GPU: 0 %
GPU_ramulator_0 channel 0 6003 reqs
GPU_ramulator_1 channel 0 5312 reqs
GPU_ramulator_2 channel 0 5507 reqs
GPU_ramulator_3 channel 0 5628 reqs
GPU_ramulator_4 channel 0 5892 reqs
GPU_ramulator_5 channel 0 5791 reqs
GPU_ramulator_6 channel 0 5949 reqs
GPU_ramulator_7 channel 0 6024 reqs
LINK_UTIL GPU: 0Port: 0 From GPU to CXL: 0 %  From CXL to GPU: 0 %
LINK_UTIL GPU: 0Port: 0 From GPU to CXL: 0 %  From CXL to GPU: 0 %
LINK_UTIL GPU: 0Port: 0 From GPU to CXL: 0 %  From CXL to GPU: 0 %
LINK_UTIL GPU: 0Port: 0 From GPU to CXL: 0 %  From CXL to GPU: 0 %
LINK_UTIL GPU: 0Port: 0 From GPU to CXL: 0 %  From CXL to GPU: 0 %
LINK_UTIL GPU: 0Port: 0 From GPU to CXL: 0 %  From CXL to GPU: 0 %
LINK_UTIL GPU: 0Port: 0 From GPU to CXL: 0 %  From CXL to GPU: 0 %


40/1536 thread blocks finished
Elapsed time: 0 h, 2 min
Expected remaining time: 1 h, 14 min


CXL_0_ramulator_0 channel 0 0 reqs
CXL_0_ramulator_0 channel 1 0 reqs
CXL_0_ramulator_0 channel 2 0 reqs
CXL_0_ramulator_0 channel 3 0 reqs
CXL_0_ramulator_0 channel 4 0 reqs
CXL_0_ramulator_0 channel 5 0 reqs
CXL_0_ramulator_0 channel 6 0 reqs
CXL_0_ramulator_0 channel 7 0 reqs
LINK_UTIL GPU: 0Port: 0 From GPU to CXL: 0 %  From CXL to GPU: 0 %
LINK_UTIL GPU: 0Port: 0 From GPU to CXL: 0 %  From CXL to GPU: 0 %
LINK_UTIL GPU: 0Port: 0 From GPU to CXL: 0 %  From CXL to GPU: 0 %
LINK_UTIL GPU: 0Port: 0 From GPU to CXL: 0 %  From CXL to GPU: 0 %
1277053 src 15 dest 21WARNING: Possible network deadlock.
LINK_UTIL GPU: 0Port: 0 From GPU to CXL: 0 %  From CXL to GPU: 0 %
LINK_UTIL GPU: 0Port: 0 From GPU to CXL: 0 %  From CXL to GPU: 0 %
LINK_UTIL GPU: 0Port: 0 From GPU to CXL: 0 %  From CXL to GPU: 0 %
LINK_UTIL GPU: 0Port: 0 From GPU to CXL: 0 %  From CXL to GPU: 0 %
LINK_UTIL GPU: 0Port: 0 From GPU to CXL: 0 %  From CXL to GPU: 0 %
LINK_UTIL GPU: 0Port: 0 From GPU to CXL: 0 %  From CXL to GPU: 0 %
LINK_UTIL GPU: 0Port: 0 From GPU to CXL: 0 %  From CXL to GPU: 0 %
LINK_UTIL GPU: 0Port: 0 From GPU to CXL: 0 %  From CXL to GPU: 0 %
LINK_UTIL GPU: 0Port: 0 From GPU to CXL: 0 %  From CXL to GPU: 0 %


40/1536 thread blocks finished
Elapsed time: 0 h, 2 min
Expected remaining time: 1 h, 14 min


GPU_ramulator_0 channel 0 6435 reqs
GPU_ramulator_1 channel 0 6543 reqs
GPU_ramulator_2 channel 0 6579 reqs
GPU_ramulator_3 channel 0 6624 reqs
GPU_ramulator_4 channel 0 6388 reqs
GPU_ramulator_5 channel 0 6483 reqs
GPU_ramulator_6 channel 0 6142 reqs
GPU_ramulator_7 channel 0 6393 reqs
LINK_UTIL GPU: 0Port: 0 From GPU to CXL: 0 %  From CXL to GPU: 0 %
LINK_UTIL GPU: 0Port: 0 From GPU to CXL: 0 %  From CXL to GPU: 0 %
LINK_UTIL GPU: 0Port: 0 From GPU to CXL: 0 %  From CXL to GPU: 0 %
CXL_0_ramulator_0 channel 0 0 reqs
CXL_0_ramulator_0 channel 1 0 reqs
CXL_0_ramulator_0 channel 2 0 reqs
CXL_0_ramulator_0 channel 3 0 reqs
CXL_0_ramulator_0 channel 4 0 reqs
CXL_0_ramulator_0 channel 5 0 reqs
CXL_0_ramulator_0 channel 6 0 reqs
CXL_0_ramulator_0 channel 7 0 reqs
LINK_UTIL GPU: 0Port: 0 From GPU to CXL: 0 %  From CXL to GPU: 0 %
LINK_UTIL GPU: 0Port: 0 From GPU to CXL: 0 %  From CXL to GPU: 0 %
LINK_UTIL GPU: 0Port: 0 From GPU to CXL: 0 %  From CXL to GPU: 0 %
LINK_UTIL GPU: 0Port: 0 From GPU to CXL: 0 %  From CXL to GPU: 0 %
LINK_UTIL GPU: 0Port: 0 From GPU to CXL: 0 %  From CXL to GPU: 0 %
LINK_UTIL GPU: 0Port: 0 From GPU to CXL: 0 %  From CXL to GPU: 0 %
LINK_UTIL GPU: 0Port: 0 From GPU to CXL: 0 %  From CXL to GPU: 0 %
LINK_UTIL GPU: 0Port: 0 From GPU to CXL: 0 %  From CXL to GPU: 0 %
LINK_UTIL GPU: 0Port: 0 From GPU to CXL: 0 %  From CXL to GPU: 0 %
LINK_UTIL GPU: 0Port: 0 From GPU to CXL: 0 %  From CXL to GPU: 0 %


40/1536 thread blocks finished
Elapsed time: 0 h, 2 min
Expected remaining time: 1 h, 14 min


LINK_UTIL GPU: 0Port: 0 From GPU to CXL: 0 %  From CXL to GPU: 0 %
LINK_UTIL GPU: 0Port: 0 From GPU to CXL: 0 %  From CXL to GPU: 0 %
LINK_UTIL GPU: 0Port: 0 From GPU to CXL: 0 %  From CXL to GPU: 0 %
LINK_UTIL GPU: 0Port: 0 From GPU to CXL: 0 %  From CXL to GPU: 0 %
LINK_UTIL GPU: 0Port: 0 From GPU to CXL: 0 %  From CXL to GPU: 0 %
LINK_UTIL GPU: 0Port: 0 From GPU to CXL: 0 %  From CXL to GPU: 0 %
CXL_0_ramulator_0 channel 0 0 reqs
CXL_0_ramulator_0 channel 1 0 reqs
CXL_0_ramulator_0 channel 2 0 reqs
CXL_0_ramulator_0 channel 3 0 reqs
CXL_0_ramulator_0 channel 4 0 reqs
CXL_0_ramulator_0 channel 5 0 reqs
CXL_0_ramulator_0 channel 6 0 reqs
CXL_0_ramulator_0 channel 7 0 reqs
LINK_UTIL GPU: 0Port: 0 From GPU to CXL: 0 %  From CXL to GPU: 0 %
GPU_ramulator_0 channel 0 6401 reqs
GPU_ramulator_1 channel 0 6443 reqs
GPU_ramulator_2 channel 0 6529 reqs
GPU_ramulator_3 channel 0 6320 reqs
GPU_ramulator_4 channel 0 6641 reqs
GPU_ramulator_5 channel 0 6550 reqs
GPU_ramulator_6 channel 0 6640 reqs
GPU_ramulator_7 channel 0 6733 reqs
LINK_UTIL GPU: 0Port: 0 From GPU to CXL: 0 %  From CXL to GPU: 0 %
LINK_UTIL GPU: 0Port: 0 From GPU to CXL: 0 %  From CXL to GPU: 0 %
LINK_UTIL GPU: 0Port: 0 From GPU to CXL: 0 %  From CXL to GPU: 0 %
LINK_UTIL GPU: 0Port: 0 From GPU to CXL: 0 %  From CXL to GPU: 0 %
LINK_UTIL GPU: 0Port: 0 From GPU to CXL: 0 %  From CXL to GPU: 0 %
LINK_UTIL GPU: 0Port: 0 From GPU to CXL: 0 %  From CXL to GPU: 0 %


40/1536 thread blocks finished
Elapsed time: 0 h, 2 min
Expected remaining time: 1 h, 14 min


LINK_UTIL GPU: 0Port: 0 From GPU to CXL: 0 %  From CXL to GPU: 0 %
LINK_UTIL GPU: 0Port: 0 From GPU to CXL: 0 %  From CXL to GPU: 0 %
LINK_UTIL GPU: 0Port: 0 From GPU to CXL: 0 %  From CXL to GPU: 0 %
LINK_UTIL GPU: 0Port: 0 From GPU to CXL: 0 %  From CXL to GPU: 0 %
LINK_UTIL GPU: 0Port: 0 From GPU to CXL: 0 %  From CXL to GPU: 0 %
LINK_UTIL GPU: 0Port: 0 From GPU to CXL: 0 %  From CXL to GPU: 0 %
1587239 src 18 dest 27WARNING: Possible network deadlock.
LINK_UTIL GPU: 0Port: 0 From GPU to CXL: 0 %  From CXL to GPU: 0 %
LINK_UTIL GPU: 0Port: 0 From GPU to CXL: 0 %  From CXL to GPU: 0 %
LINK_UTIL GPU: 0Port: 0 From GPU to CXL: 0 %  From CXL to GPU: 0 %
CXL_0_ramulator_0 channel 0 0 reqs
CXL_0_ramulator_0 channel 1 0 reqs
CXL_0_ramulator_0 channel 2 0 reqs
CXL_0_ramulator_0 channel 3 0 reqs
CXL_0_ramulator_0 channel 4 0 reqs
CXL_0_ramulator_0 channel 5 0 reqs
CXL_0_ramulator_0 channel 6 0 reqs
CXL_0_ramulator_0 channel 7 0 reqs
LINK_UTIL GPU: 0Port: 0 From GPU to CXL: 0 %  From CXL to GPU: 0 %
LINK_UTIL GPU: 0Port: 0 From GPU to CXL: 0 %  From CXL to GPU: 0 %
LINK_UTIL GPU: 0Port: 0 From GPU to CXL: 0 %  From CXL to GPU: 0 %


40/1536 thread blocks finished
Elapsed time: 0 h, 3 min
Expected remaining time: 1 h, 52 min


LINK_UTIL GPU: 0Port: 0 From GPU to CXL: 0 %  From CXL to GPU: 0 %
1648792 src 14 dest 32WARNING: Possible network deadlock.
LINK_UTIL GPU: 0Port: 0 From GPU to CXL: 0 %  From CXL to GPU: 0 %
GPU_ramulator_0 channel 0 6405 reqs
GPU_ramulator_1 channel 0 6345 reqs
GPU_ramulator_2 channel 0 6401 reqs
GPU_ramulator_3 channel 0 6252 reqs
GPU_ramulator_4 channel 0 6362 reqs
GPU_ramulator_5 channel 0 6455 reqs
GPU_ramulator_6 channel 0 6460 reqs
GPU_ramulator_7 channel 0 6391 reqs
LINK_UTIL GPU: 0Port: 0 From GPU to CXL: 0 %  From CXL to GPU: 0 %
LINK_UTIL GPU: 0Port: 0 From GPU to CXL: 0 %  From CXL to GPU: 0 %
LINK_UTIL GPU: 0Port: 0 From GPU to CXL: 0 %  From CXL to GPU: 0 %
LINK_UTIL GPU: 0Port: 0 From GPU to CXL: 0 %  From CXL to GPU: 0 %
LINK_UTIL GPU: 0Port: 0 From GPU to CXL: 0 %  From CXL to GPU: 0 %
LINK_UTIL GPU: 0Port: 0 From GPU to CXL: 0 %  From CXL to GPU: 0 %
LINK_UTIL GPU: 0Port: 0 From GPU to CXL: 0 %  From CXL to GPU: 0 %
LINK_UTIL GPU: 0Port: 0 From GPU to CXL: 0 %  From CXL to GPU: 0 %
GPU 0 thread block = 8,3,0
LINK_UTIL GPU: 0Port: 0 From GPU to CXL: 0 %  From CXL to GPU: 0 %
GPU 0 thread block = 9,3,0
GPU 0 thread block = 10,3,0
GPU 0 thread block = 11,3,0
LINK_UTIL GPU: 0Port: 0 From GPU to CXL: 0 %  From CXL to GPU: 0 %
GPU 0 thread block = 12,3,0
LINK_UTIL GPU: 0Port: 0 From GPU to CXL: 0 %  From CXL to GPU: 0 %


45/1536 thread blocks finished
Elapsed time: 0 h, 3 min
Expected remaining time: 1 h, 39 min


CXL_0_ramulator_0 channel 0 0 reqs
CXL_0_ramulator_0 channel 1 0 reqs
CXL_0_ramulator_0 channel 2 0 reqs
CXL_0_ramulator_0 channel 3 0 reqs
CXL_0_ramulator_0 channel 4 0 reqs
CXL_0_ramulator_0 channel 5 0 reqs
CXL_0_ramulator_0 channel 6 0 reqs
CXL_0_ramulator_0 channel 7 0 reqs
LINK_UTIL GPU: 0Port: 0 From GPU to CXL: 0 %  From CXL to GPU: 0 %
GPU 0 thread block = 13,3,0
LINK_UTIL GPU: 0Port: 0 From GPU to CXL: 0 %  From CXL to GPU: 0 %
GPU 0 thread block = 14,3,0
LINK_UTIL GPU: 0Port: 0 From GPU to CXL: 0 %  From CXL to GPU: 0 %
GPU 0 thread block = 15,3,0
LINK_UTIL GPU: 0Port: 0 From GPU to CXL: 0 %  From CXL to GPU: 0 %
LINK_UTIL GPU: 0Port: 0 From GPU to CXL: 0 %  From CXL to GPU: 0 %
LINK_UTIL GPU: 0Port: 0 From GPU to CXL: 0 %  From CXL to GPU: 0 %
LINK_UTIL GPU: 0Port: 0 From GPU to CXL: 0 %  From CXL to GPU: 0 %
LINK_UTIL GPU: 0Port: 0 From GPU to CXL: 0 %  From CXL to GPU: 0 %
1831253 src 19 dest 35WARNING: Possible network deadlock.
LINK_UTIL GPU: 0Port: 0 From GPU to CXL: 0 %  From CXL to GPU: 0 %
LINK_UTIL GPU: 0Port: 0 From GPU to CXL: 0 %  From CXL to GPU: 0 %
GPU_ramulator_0 channel 0 6404 reqs
GPU_ramulator_1 channel 0 6480 reqs
GPU_ramulator_2 channel 0 6447 reqs
GPU_ramulator_3 channel 0 6676 reqs
GPU_ramulator_4 channel 0 6531 reqs
GPU_ramulator_5 channel 0 6322 reqs
GPU_ramulator_6 channel 0 6649 reqs
GPU_ramulator_7 channel 0 6461 reqs
LINK_UTIL GPU: 0Port: 0 From GPU to CXL: 0 %  From CXL to GPU: 0 %
LINK_UTIL GPU: 0Port: 0 From GPU to CXL: 0 %  From CXL to GPU: 0 %
LINK_UTIL GPU: 0Port: 0 From GPU to CXL: 0 %  From CXL to GPU: 0 %


48/1536 thread blocks finished
Elapsed time: 0 h, 3 min
Expected remaining time: 1 h, 33 min


LINK_UTIL GPU: 0Port: 0 From GPU to CXL: 0 %  From CXL to GPU: 0 %
LINK_UTIL GPU: 0Port: 0 From GPU to CXL: 0 %  From CXL to GPU: 0 %
1882319 src 0 dest 23WARNING: Possible network deadlock.
LINK_UTIL GPU: 0Port: 0 From GPU to CXL: 0 %  From CXL to GPU: 0 %
CXL_0_ramulator_0 channel 0 0 reqs
CXL_0_ramulator_0 channel 1 0 reqs
CXL_0_ramulator_0 channel 2 0 reqs
CXL_0_ramulator_0 channel 3 0 reqs
CXL_0_ramulator_0 channel 4 0 reqs
CXL_0_ramulator_0 channel 5 0 reqs
CXL_0_ramulator_0 channel 6 0 reqs
CXL_0_ramulator_0 channel 7 0 reqs
LINK_UTIL GPU: 0Port: 0 From GPU to CXL: 0 %  From CXL to GPU: 0 %
LINK_UTIL GPU: 0Port: 0 From GPU to CXL: 0 %  From CXL to GPU: 0 %
LINK_UTIL GPU: 0Port: 0 From GPU to CXL: 0 %  From CXL to GPU: 0 %
LINK_UTIL GPU: 0Port: 0 From GPU to CXL: 0 %  From CXL to GPU: 0 %
LINK_UTIL GPU: 0Port: 0 From GPU to CXL: 0 %  From CXL to GPU: 0 %
LINK_UTIL GPU: 0Port: 0 From GPU to CXL: 0 %  From CXL to GPU: 0 %
LINK_UTIL GPU: 0Port: 0 From GPU to CXL: 0 %  From CXL to GPU: 0 %
LINK_UTIL GPU: 0Port: 0 From GPU to CXL: 0 %  From CXL to GPU: 0 %
LINK_UTIL GPU: 0Port: 0 From GPU to CXL: 0 %  From CXL to GPU: 0 %
LINK_UTIL GPU: 0Port: 0 From GPU to CXL: 0 %  From CXL to GPU: 0 %


48/1536 thread blocks finished
Elapsed time: 0 h, 3 min
Expected remaining time: 1 h, 33 min


LINK_UTIL GPU: 0Port: 0 From GPU to CXL: 0 %  From CXL to GPU: 0 %
GPU 0 thread block = 16,3,0
LINK_UTIL GPU: 0Port: 0 From GPU to CXL: 0 %  From CXL to GPU: 0 %
GPU 0 thread block = 17,3,0
GPU 0 thread block = 18,3,0
GPU 0 thread block = 19,3,0
GPU 0 thread block = 20,3,0
GPU 0 thread block = 21,3,0
GPU 0 thread block = 22,3,0
LINK_UTIL GPU: 0Port: 0 From GPU to CXL: 0 %  From CXL to GPU: 0 %
GPU 0 thread block = 23,3,0
LINK_UTIL GPU: 0Port: 0 From GPU to CXL: 0 %  From CXL to GPU: 0 %
GPU_ramulator_0 channel 0 6504 reqs
GPU_ramulator_1 channel 0 6489 reqs
GPU_ramulator_2 channel 0 6603 reqs
GPU_ramulator_3 channel 0 6471 reqs
GPU_ramulator_4 channel 0 6364 reqs
GPU_ramulator_5 channel 0 6514 reqs
GPU_ramulator_6 channel 0 6493 reqs
GPU_ramulator_7 channel 0 6605 reqs
GPU 0 thread block = 0,4,0
GPU 0 thread block = 1,4,0
LINK_UTIL GPU: 0Port: 0 From GPU to CXL: 0 %  From CXL to GPU: 0 %
GPU 0 thread block = 2,4,0
LINK_UTIL GPU: 0Port: 0 From GPU to CXL: 0 %  From CXL to GPU: 0 %
GPU 0 thread block = 3,4,0
GPU 0 thread block = 4,4,0
GPU 0 thread block = 5,4,0
CXL_0_ramulator_0 channel 0 0 reqs
CXL_0_ramulator_0 channel 1 0 reqs
CXL_0_ramulator_0 channel 2 0 reqs
CXL_0_ramulator_0 channel 3 0 reqs
CXL_0_ramulator_0 channel 4 0 reqs
CXL_0_ramulator_0 channel 5 0 reqs
CXL_0_ramulator_0 channel 6 0 reqs
CXL_0_ramulator_0 channel 7 0 reqs
GPU 0 thread block = 6,4,0
LINK_UTIL GPU: 0Port: 0 From GPU to CXL: 0 %  From CXL to GPU: 0 %
GPU 0 thread block = 7,4,0
LINK_UTIL GPU: 0Port: 0 From GPU to CXL: 0 %  From CXL to GPU: 0 %
INITIALIZER 
INITIALIZER 
INITIALIZER 
INITIALIZER 
INITIALIZER 
INITIALIZER 
INITIALIZER 
INITIALIZER 
LINK_UTIL GPU: 0Port: 0 From GPU to CXL: 0.48 %  From CXL to GPU: 43.95 %
LINK_UTIL GPU: 0Port: 0 From GPU to CXL: 0 %  From CXL to GPU: 62.3 %
2062853 src 7 dest 23WARNING: Possible network deadlock.
LINK_UTIL GPU: 0Port: 0 From GPU to CXL: 0 %  From CXL to GPU: 62.55 %
LINK_UTIL GPU: 0Port: 0 From GPU to CXL: 0 %  From CXL to GPU: 62.55 %
LINK_UTIL GPU: 0Port: 0 From GPU to CXL: 0 %  From CXL to GPU: 62.45 %


64/1536 thread blocks finished
Elapsed time: 0 h, 3 min
Expected remaining time: 1 h, 9 min


LINK_UTIL GPU: 0Port: 0 From GPU to CXL: 0 %  From CXL to GPU: 13.4 %
LINK_UTIL GPU: 0Port: 0 From GPU to CXL: 0 %  From CXL to GPU: 0 %
LINK_UTIL GPU: 0Port: 0 From GPU to CXL: 0 %  From CXL to GPU: 0 %
LINK_UTIL GPU: 0Port: 0 From GPU to CXL: 0 %  From CXL to GPU: 0 %
2092981 src 18 dest 31WARNING: Possible network deadlock.
LINK_UTIL GPU: 0Port: 0 From GPU to CXL: 0 %  From CXL to GPU: 0 %
LINK_UTIL GPU: 0Port: 0 From GPU to CXL: 0 %  From CXL to GPU: 0 %
LINK_UTIL GPU: 0Port: 0 From GPU to CXL: 0 %  From CXL to GPU: 0 %
LINK_UTIL GPU: 0Port: 0 From GPU to CXL: 0 %  From CXL to GPU: 0 %
LINK_UTIL GPU: 0Port: 0 From GPU to CXL: 0 %  From CXL to GPU: 0 %
CXL_0_ramulator_0 channel 0 772 reqs
CXL_0_ramulator_0 channel 1 772 reqs
CXL_0_ramulator_0 channel 2 772 reqs
CXL_0_ramulator_0 channel 3 772 reqs
CXL_0_ramulator_0 channel 4 772 reqs
CXL_0_ramulator_0 channel 5 772 reqs
CXL_0_ramulator_0 channel 6 772 reqs
CXL_0_ramulator_0 channel 7 772 reqs
LINK_UTIL GPU: 0Port: 0 From GPU to CXL: 0 %  From CXL to GPU: 0 %
LINK_UTIL GPU: 0Port: 0 From GPU to CXL: 0 %  From CXL to GPU: 0 %
2151100 src 15 dest 30WARNING: Possible network deadlock.
GPU_ramulator_0 channel 0 6499 reqs
GPU_ramulator_1 channel 0 6580 reqs
GPU_ramulator_2 channel 0 6473 reqs
GPU_ramulator_3 channel 0 6569 reqs
GPU_ramulator_4 channel 0 6476 reqs
GPU_ramulator_5 channel 0 6549 reqs
GPU_ramulator_6 channel 0 6553 reqs
GPU_ramulator_7 channel 0 6400 reqs
LINK_UTIL GPU: 0Port: 0 From GPU to CXL: 0 %  From CXL to GPU: 0 %


64/1536 thread blocks finished
Elapsed time: 0 h, 4 min
Expected remaining time: 1 h, 32 min


LINK_UTIL GPU: 0Port: 0 From GPU to CXL: 0 %  From CXL to GPU: 0 %
LINK_UTIL GPU: 0Port: 0 From GPU to CXL: 0 %  From CXL to GPU: 0 %
LINK_UTIL GPU: 0Port: 0 From GPU to CXL: 0 %  From CXL to GPU: 0 %
LINK_UTIL GPU: 0Port: 0 From GPU to CXL: 0 %  From CXL to GPU: 0 %
LINK_UTIL GPU: 0Port: 0 From GPU to CXL: 0 %  From CXL to GPU: 0 %
GPU 0 thread block = 8,4,0
LINK_UTIL GPU: 0Port: 0 From GPU to CXL: 0 %  From CXL to GPU: 0 %
GPU 0 thread block = 9,4,0
LINK_UTIL GPU: 0Port: 0 From GPU to CXL: 0 %  From CXL to GPU: 0 %
LINK_UTIL GPU: 0Port: 0 From GPU to CXL: 0 %  From CXL to GPU: 0 %
GPU 0 thread block = 10,4,0
LINK_UTIL GPU: 0Port: 0 From GPU to CXL: 0 %  From CXL to GPU: 0 %
LINK_UTIL GPU: 0Port: 0 From GPU to CXL: 0 %  From CXL to GPU: 0 %
GPU 0 thread block = 11,4,0
GPU 0 thread block = 12,4,0
GPU 0 thread block = 13,4,0
LINK_UTIL GPU: 0Port: 0 From GPU to CXL: 0 %  From CXL to GPU: 0 %
LINK_UTIL GPU: 0Port: 0 From GPU to CXL: 0 %  From CXL to GPU: 0 %
LINK_UTIL GPU: 0Port: 0 From GPU to CXL: 0 %  From CXL to GPU: 0 %
2248680 src 13 dest 31WARNING: Possible network deadlock.
GPU 0 thread block = 14,4,0


71/1536 thread blocks finished
Elapsed time: 0 h, 4 min
Expected remaining time: 1 h, 22 min


CXL_0_ramulator_0 channel 0 0 reqs
CXL_0_ramulator_0 channel 1 0 reqs
CXL_0_ramulator_0 channel 2 0 reqs
CXL_0_ramulator_0 channel 3 0 reqs
CXL_0_ramulator_0 channel 4 0 reqs
CXL_0_ramulator_0 channel 5 0 reqs
CXL_0_ramulator_0 channel 6 0 reqs
CXL_0_ramulator_0 channel 7 0 reqs
LINK_UTIL GPU: 0Port: 0 From GPU to CXL: 0 %  From CXL to GPU: 0 %
LINK_UTIL GPU: 0Port: 0 From GPU to CXL: 0 %  From CXL to GPU: 0 %
LINK_UTIL GPU: 0Port: 0 From GPU to CXL: 0 %  From CXL to GPU: 0 %
LINK_UTIL GPU: 0Port: 0 From GPU to CXL: 0 %  From CXL to GPU: 0 %
LINK_UTIL GPU: 0Port: 0 From GPU to CXL: 0 %  From CXL to GPU: 0 %
GPU 0 thread block = 15,4,0
LINK_UTIL GPU: 0Port: 0 From GPU to CXL: 0 %  From CXL to GPU: 0 %
GPU_ramulator_0 channel 0 6325 reqs
GPU_ramulator_1 channel 0 6736 reqs
GPU_ramulator_2 channel 0 6297 reqs
GPU_ramulator_3 channel 0 6380 reqs
GPU_ramulator_4 channel 0 6384 reqs
GPU_ramulator_5 channel 0 6766 reqs
GPU_ramulator_6 channel 0 6225 reqs
GPU_ramulator_7 channel 0 6458 reqs
2310617 src 1 dest 31WARNING: Possible network deadlock.
LINK_UTIL GPU: 0Port: 0 From GPU to CXL: 0 %  From CXL to GPU: 0 %
GPU 0 thread block = 16,4,0
GPU 0 thread block = 17,4,0
LINK_UTIL GPU: 0Port: 0 From GPU to CXL: 0 %  From CXL to GPU: 0 %
LINK_UTIL GPU: 0Port: 0 From GPU to CXL: 0 %  From CXL to GPU: 0 %
LINK_UTIL GPU: 0Port: 0 From GPU to CXL: 0 %  From CXL to GPU: 0 %
LINK_UTIL GPU: 0Port: 0 From GPU to CXL: 0 %  From CXL to GPU: 0 %
LINK_UTIL GPU: 0Port: 0 From GPU to CXL: 0 %  From CXL to GPU: 0 %
GPU 0 thread block = 18,4,0
GPU 0 thread block = 19,4,0
LINK_UTIL GPU: 0Port: 0 From GPU to CXL: 0 %  From CXL to GPU: 0 %


76/1536 thread blocks finished
Elapsed time: 0 h, 4 min
Expected remaining time: 1 h, 16 min


GPU 0 thread block = 20,4,0
LINK_UTIL GPU: 0Port: 0 From GPU to CXL: 0 %  From CXL to GPU: 0 %
GPU 0 thread block = 21,4,0
GPU 0 thread block = 22,4,0
GPU 0 thread block = 23,4,0
LINK_UTIL GPU: 0Port: 0 From GPU to CXL: 0 %  From CXL to GPU: 0 %
LINK_UTIL GPU: 0Port: 0 From GPU to CXL: 0 %  From CXL to GPU: 0 %
CXL_0_ramulator_0 channel 0 0 reqs
CXL_0_ramulator_0 channel 1 0 reqs
CXL_0_ramulator_0 channel 2 0 reqs
CXL_0_ramulator_0 channel 3 0 reqs
CXL_0_ramulator_0 channel 4 0 reqs
CXL_0_ramulator_0 channel 5 0 reqs
CXL_0_ramulator_0 channel 6 0 reqs
CXL_0_ramulator_0 channel 7 0 reqs
LINK_UTIL GPU: 0Port: 0 From GPU to CXL: 0 %  From CXL to GPU: 0 %
LINK_UTIL GPU: 0Port: 0 From GPU to CXL: 0 %  From CXL to GPU: 0 %
LINK_UTIL GPU: 0Port: 0 From GPU to CXL: 0 %  From CXL to GPU: 0 %
LINK_UTIL GPU: 0Port: 0 From GPU to CXL: 0 %  From CXL to GPU: 0 %
LINK_UTIL GPU: 0Port: 0 From GPU to CXL: 0 %  From CXL to GPU: 0 %
LINK_UTIL GPU: 0Port: 0 From GPU to CXL: 0 %  From CXL to GPU: 0 %
LINK_UTIL GPU: 0Port: 0 From GPU to CXL: 0 %  From CXL to GPU: 0 %
LINK_UTIL GPU: 0Port: 0 From GPU to CXL: 0 %  From CXL to GPU: 0 %
LINK_UTIL GPU: 0Port: 0 From GPU to CXL: 0 %  From CXL to GPU: 0 %
LINK_UTIL GPU: 0Port: 0 From GPU to CXL: 0 %  From CXL to GPU: 0 %


80/1536 thread blocks finished
Elapsed time: 0 h, 4 min
Expected remaining time: 1 h, 12 min


GPU_ramulator_0 channel 0 6318 reqs
GPU_ramulator_1 channel 0 6504 reqs
GPU_ramulator_2 channel 0 6248 reqs
GPU_ramulator_3 channel 0 6245 reqs
GPU_ramulator_4 channel 0 6284 reqs
GPU_ramulator_5 channel 0 6442 reqs
GPU_ramulator_6 channel 0 6233 reqs
GPU_ramulator_7 channel 0 6289 reqs
LINK_UTIL GPU: 0Port: 0 From GPU to CXL: 0 %  From CXL to GPU: 0 %
2458603 src 6 dest 31WARNING: Possible network deadlock.
LINK_UTIL GPU: 0Port: 0 From GPU to CXL: 0 %  From CXL to GPU: 0 %
LINK_UTIL GPU: 0Port: 0 From GPU to CXL: 0 %  From CXL to GPU: 0 %
LINK_UTIL GPU: 0Port: 0 From GPU to CXL: 0 %  From CXL to GPU: 0 %
LINK_UTIL GPU: 0Port: 0 From GPU to CXL: 0 %  From CXL to GPU: 0 %
LINK_UTIL GPU: 0Port: 0 From GPU to CXL: 0 %  From CXL to GPU: 0 %
CXL_0_ramulator_0 channel 0 0 reqs
CXL_0_ramulator_0 channel 1 0 reqs
CXL_0_ramulator_0 channel 2 0 reqs
CXL_0_ramulator_0 channel 3 0 reqs
CXL_0_ramulator_0 channel 4 0 reqs
CXL_0_ramulator_0 channel 5 0 reqs
CXL_0_ramulator_0 channel 6 0 reqs
CXL_0_ramulator_0 channel 7 0 reqs
LINK_UTIL GPU: 0Port: 0 From GPU to CXL: 0 %  From CXL to GPU: 0 %
LINK_UTIL GPU: 0Port: 0 From GPU to CXL: 0 %  From CXL to GPU: 0 %
LINK_UTIL GPU: 0Port: 0 From GPU to CXL: 0 %  From CXL to GPU: 0 %
LINK_UTIL GPU: 0Port: 0 From GPU to CXL: 0 %  From CXL to GPU: 0 %
LINK_UTIL GPU: 0Port: 0 From GPU to CXL: 0 %  From CXL to GPU: 0 %
LINK_UTIL GPU: 0Port: 0 From GPU to CXL: 0 %  From CXL to GPU: 0 %
LINK_UTIL GPU: 0Port: 0 From GPU to CXL: 0 %  From CXL to GPU: 0 %


80/1536 thread blocks finished
Elapsed time: 0 h, 4 min
Expected remaining time: 1 h, 12 min


LINK_UTIL GPU: 0Port: 0 From GPU to CXL: 0 %  From CXL to GPU: 0 %
LINK_UTIL GPU: 0Port: 0 From GPU to CXL: 0 %  From CXL to GPU: 0 %
LINK_UTIL GPU: 0Port: 0 From GPU to CXL: 0 %  From CXL to GPU: 0 %
GPU 0 thread block = 0,5,0
LINK_UTIL GPU: 0Port: 0 From GPU to CXL: 0 %  From CXL to GPU: 0 %
GPU 0 thread block = 1,5,0
LINK_UTIL GPU: 0Port: 0 From GPU to CXL: 0.09 %  From CXL to GPU: 22.2 %
GPU 0 thread block = 2,5,0
LINK_UTIL GPU: 0Port: 0 From GPU to CXL: 0.39 %  From CXL to GPU: 62.6 %
GPU 0 thread block = 3,5,0
GPU 0 thread block = 4,5,0
LINK_UTIL GPU: 0Port: 0 From GPU to CXL: 0 %  From CXL to GPU: 62.4 %
GPU 0 thread block = 5,5,0
GPU_ramulator_0 channel 0 6390 reqs
GPU_ramulator_1 channel 0 6228 reqs
GPU_ramulator_2 channel 0 6186 reqs
GPU_ramulator_3 channel 0 6330 reqs
GPU_ramulator_4 channel 0 6340 reqs
GPU_ramulator_5 channel 0 6442 reqs
GPU_ramulator_6 channel 0 6387 reqs
GPU_ramulator_7 channel 0 6382 reqs
LINK_UTIL GPU: 0Port: 0 From GPU to CXL: 0 %  From CXL to GPU: 62.2 %
LINK_UTIL GPU: 0Port: 0 From GPU to CXL: 0 %  From CXL to GPU: 62.65 %
CXL_0_ramulator_0 channel 0 768 reqs
CXL_0_ramulator_0 channel 1 768 reqs
CXL_0_ramulator_0 channel 2 768 reqs
CXL_0_ramulator_0 channel 3 768 reqs
CXL_0_ramulator_0 channel 4 768 reqs
CXL_0_ramulator_0 channel 5 768 reqs
CXL_0_ramulator_0 channel 6 768 reqs
CXL_0_ramulator_0 channel 7 768 reqs
LINK_UTIL GPU: 0Port: 0 From GPU to CXL: 0 %  From CXL to GPU: 35.15 %
GPU 0 thread block = 6,5,0
LINK_UTIL GPU: 0Port: 0 From GPU to CXL: 0 %  From CXL to GPU: 0 %
GPU 0 thread block = 7,5,0
LINK_UTIL GPU: 0Port: 0 From GPU to CXL: 0 %  From CXL to GPU: 0 %


88/1536 thread blocks finished
Elapsed time: 0 h, 5 min
Expected remaining time: 1 h, 22 min


LINK_UTIL GPU: 0Port: 0 From GPU to CXL: 0 %  From CXL to GPU: 0 %
LINK_UTIL GPU: 0Port: 0 From GPU to CXL: 0 %  From CXL to GPU: 0 %
LINK_UTIL GPU: 0Port: 0 From GPU to CXL: 0 %  From CXL to GPU: 0 %
LINK_UTIL GPU: 0Port: 0 From GPU to CXL: 0 %  From CXL to GPU: 0 %
LINK_UTIL GPU: 0Port: 0 From GPU to CXL: 0 %  From CXL to GPU: 0 %
LINK_UTIL GPU: 0Port: 0 From GPU to CXL: 0 %  From CXL to GPU: 0 %
LINK_UTIL GPU: 0Port: 0 From GPU to CXL: 0 %  From CXL to GPU: 0 %
LINK_UTIL GPU: 0Port: 0 From GPU to CXL: 0 %  From CXL to GPU: 0 %
LINK_UTIL GPU: 0Port: 0 From GPU to CXL: 0 %  From CXL to GPU: 0 %
LINK_UTIL GPU: 0Port: 0 From GPU to CXL: 0 %  From CXL to GPU: 0 %
LINK_UTIL GPU: 0Port: 0 From GPU to CXL: 0 %  From CXL to GPU: 0 %
LINK_UTIL GPU: 0Port: 0 From GPU to CXL: 0 %  From CXL to GPU: 0 %
LINK_UTIL GPU: 0Port: 0 From GPU to CXL: 0 %  From CXL to GPU: 0 %


88/1536 thread blocks finished
Elapsed time: 0 h, 5 min
Expected remaining time: 1 h, 22 min


CXL_0_ramulator_0 channel 0 0 reqs
CXL_0_ramulator_0 channel 1 0 reqs
CXL_0_ramulator_0 channel 2 0 reqs
CXL_0_ramulator_0 channel 3 0 reqs
CXL_0_ramulator_0 channel 4 0 reqs
CXL_0_ramulator_0 channel 5 0 reqs
CXL_0_ramulator_0 channel 6 0 reqs
CXL_0_ramulator_0 channel 7 0 reqs
LINK_UTIL GPU: 0Port: 0 From GPU to CXL: 0 %  From CXL to GPU: 0 %
LINK_UTIL GPU: 0Port: 0 From GPU to CXL: 0 %  From CXL to GPU: 0 %
GPU_ramulator_0 channel 0 6407 reqs
GPU_ramulator_1 channel 0 6605 reqs
GPU_ramulator_2 channel 0 6516 reqs
GPU_ramulator_3 channel 0 6518 reqs
GPU_ramulator_4 channel 0 6497 reqs
GPU_ramulator_5 channel 0 6410 reqs
GPU_ramulator_6 channel 0 6528 reqs
GPU_ramulator_7 channel 0 6525 reqs
LINK_UTIL GPU: 0Port: 0 From GPU to CXL: 0 %  From CXL to GPU: 0 %
LINK_UTIL GPU: 0Port: 0 From GPU to CXL: 0 %  From CXL to GPU: 0 %
LINK_UTIL GPU: 0Port: 0 From GPU to CXL: 0 %  From CXL to GPU: 0 %
LINK_UTIL GPU: 0Port: 0 From GPU to CXL: 0 %  From CXL to GPU: 0 %
LINK_UTIL GPU: 0Port: 0 From GPU to CXL: 0 %  From CXL to GPU: 0 %
LINK_UTIL GPU: 0Port: 0 From GPU to CXL: 0 %  From CXL to GPU: 0 %
LINK_UTIL GPU: 0Port: 0 From GPU to CXL: 0 %  From CXL to GPU: 0 %
LINK_UTIL GPU: 0Port: 0 From GPU to CXL: 0 %  From CXL to GPU: 0 %
LINK_UTIL GPU: 0Port: 0 From GPU to CXL: 0 %  From CXL to GPU: 0 %
LINK_UTIL GPU: 0Port: 0 From GPU to CXL: 0 %  From CXL to GPU: 0 %
LINK_UTIL GPU: 0Port: 0 From GPU to CXL: 0 %  From CXL to GPU: 0 %


88/1536 thread blocks finished
Elapsed time: 0 h, 5 min
Expected remaining time: 1 h, 22 min


LINK_UTIL GPU: 0Port: 0 From GPU to CXL: 0 %  From CXL to GPU: 0 %
LINK_UTIL GPU: 0Port: 0 From GPU to CXL: 0 %  From CXL to GPU: 0 %
LINK_UTIL GPU: 0Port: 0 From GPU to CXL: 0 %  From CXL to GPU: 0 %
CXL_0_ramulator_0 channel 0 0 reqs
CXL_0_ramulator_0 channel 1 0 reqs
CXL_0_ramulator_0 channel 2 0 reqs
CXL_0_ramulator_0 channel 3 0 reqs
CXL_0_ramulator_0 channel 4 0 reqs
CXL_0_ramulator_0 channel 5 0 reqs
CXL_0_ramulator_0 channel 6 0 reqs
CXL_0_ramulator_0 channel 7 0 reqs
LINK_UTIL GPU: 0Port: 0 From GPU to CXL: 0 %  From CXL to GPU: 0 %
LINK_UTIL GPU: 0Port: 0 From GPU to CXL: 0 %  From CXL to GPU: 0 %
LINK_UTIL GPU: 0Port: 0 From GPU to CXL: 0 %  From CXL to GPU: 0 %
LINK_UTIL GPU: 0Port: 0 From GPU to CXL: 0 %  From CXL to GPU: 0 %
LINK_UTIL GPU: 0Port: 0 From GPU to CXL: 0 %  From CXL to GPU: 0 %
LINK_UTIL GPU: 0Port: 0 From GPU to CXL: 0 %  From CXL to GPU: 0 %
LINK_UTIL GPU: 0Port: 0 From GPU to CXL: 0 %  From CXL to GPU: 0 %
GPU_ramulator_0 channel 0 5598 reqs
GPU_ramulator_1 channel 0 5728 reqs
GPU_ramulator_2 channel 0 6389 reqs
GPU_ramulator_3 channel 0 5999 reqs
GPU_ramulator_4 channel 0 6349 reqs
GPU_ramulator_5 channel 0 6432 reqs
GPU_ramulator_6 channel 0 5980 reqs
GPU_ramulator_7 channel 0 5801 reqs
LINK_UTIL GPU: 0Port: 0 From GPU to CXL: 0 %  From CXL to GPU: 0 %
LINK_UTIL GPU: 0Port: 0 From GPU to CXL: 0 %  From CXL to GPU: 0 %
LINK_UTIL GPU: 0Port: 0 From GPU to CXL: 0 %  From CXL to GPU: 0 %


88/1536 thread blocks finished
Elapsed time: 0 h, 5 min
Expected remaining time: 1 h, 22 min


LINK_UTIL GPU: 0Port: 0 From GPU to CXL: 0 %  From CXL to GPU: 0 %
LINK_UTIL GPU: 0Port: 0 From GPU to CXL: 0 %  From CXL to GPU: 0 %
LINK_UTIL GPU: 0Port: 0 From GPU to CXL: 0 %  From CXL to GPU: 0 %
LINK_UTIL GPU: 0Port: 0 From GPU to CXL: 0 %  From CXL to GPU: 0 %
LINK_UTIL GPU: 0Port: 0 From GPU to CXL: 0 %  From CXL to GPU: 0 %
LINK_UTIL GPU: 0Port: 0 From GPU to CXL: 0 %  From CXL to GPU: 0 %
CXL_0_ramulator_0 channel 0 0 reqs
CXL_0_ramulator_0 channel 1 0 reqs
CXL_0_ramulator_0 channel 2 0 reqs
CXL_0_ramulator_0 channel 3 0 reqs
CXL_0_ramulator_0 channel 4 0 reqs
CXL_0_ramulator_0 channel 5 0 reqs
CXL_0_ramulator_0 channel 6 0 reqs
CXL_0_ramulator_0 channel 7 0 reqs
LINK_UTIL GPU: 0Port: 0 From GPU to CXL: 0 %  From CXL to GPU: 0 %
LINK_UTIL GPU: 0Port: 0 From GPU to CXL: 0 %  From CXL to GPU: 0 %
LINK_UTIL GPU: 0Port: 0 From GPU to CXL: 0 %  From CXL to GPU: 0 %
GPU 0 thread block = 8,5,0
GPU 0 thread block = 9,5,0
LINK_UTIL GPU: 0Port: 0 From GPU to CXL: 0 %  From CXL to GPU: 0 %
LINK_UTIL GPU: 0Port: 0 From GPU to CXL: 0 %  From CXL to GPU: 0 %
GPU 0 thread block = 10,5,0
GPU 0 thread block = 11,5,0
LINK_UTIL GPU: 0Port: 0 From GPU to CXL: 0 %  From CXL to GPU: 0 %
GPU 0 thread block = 12,5,0


93/1536 thread blocks finished
Elapsed time: 0 h, 6 min
Expected remaining time: 1 h, 33 min


LINK_UTIL GPU: 0Port: 0 From GPU to CXL: 0 %  From CXL to GPU: 0 %
GPU 0 thread block = 13,5,0
GPU 0 thread block = 14,5,0
LINK_UTIL GPU: 0Port: 0 From GPU to CXL: 0 %  From CXL to GPU: 0 %
LINK_UTIL GPU: 0Port: 0 From GPU to CXL: 0 %  From CXL to GPU: 0 %
LINK_UTIL GPU: 0Port: 0 From GPU to CXL: 0 %  From CXL to GPU: 0 %
LINK_UTIL GPU: 0Port: 0 From GPU to CXL: 0 %  From CXL to GPU: 0 %
GPU_ramulator_0 channel 0 6323 reqs
GPU_ramulator_1 channel 0 6288 reqs
GPU_ramulator_2 channel 0 6360 reqs
GPU_ramulator_3 channel 0 6362 reqs
GPU_ramulator_4 channel 0 6408 reqs
GPU_ramulator_5 channel 0 6277 reqs
GPU_ramulator_6 channel 0 6368 reqs
GPU_ramulator_7 channel 0 6413 reqs
GPU 0 thread block = 15,5,0
LINK_UTIL GPU: 0Port: 0 From GPU to CXL: 0 %  From CXL to GPU: 0 %
LINK_UTIL GPU: 0Port: 0 From GPU to CXL: 0 %  From CXL to GPU: 0 %
LINK_UTIL GPU: 0Port: 0 From GPU to CXL: 0 %  From CXL to GPU: 0 %
LINK_UTIL GPU: 0Port: 0 From GPU to CXL: 0 %  From CXL to GPU: 0 %
LINK_UTIL GPU: 0Port: 0 From GPU to CXL: 0 %  From CXL to GPU: 0 %
CXL_0_ramulator_0 channel 0 0 reqs
CXL_0_ramulator_0 channel 1 0 reqs
CXL_0_ramulator_0 channel 2 0 reqs
CXL_0_ramulator_0 channel 3 0 reqs
CXL_0_ramulator_0 channel 4 0 reqs
CXL_0_ramulator_0 channel 5 0 reqs
CXL_0_ramulator_0 channel 6 0 reqs
CXL_0_ramulator_0 channel 7 0 reqs
GPU 0 thread block = 16,5,0
LINK_UTIL GPU: 0Port: 0 From GPU to CXL: 0 %  From CXL to GPU: 0 %
LINK_UTIL GPU: 0Port: 0 From GPU to CXL: 0 %  From CXL to GPU: 0 %
LINK_UTIL GPU: 0Port: 0 From GPU to CXL: 0 %  From CXL to GPU: 0 %


97/1536 thread blocks finished
Elapsed time: 0 h, 6 min
Expected remaining time: 1 h, 29 min


GPU 0 thread block = 17,5,0
LINK_UTIL GPU: 0Port: 0 From GPU to CXL: 0 %  From CXL to GPU: 0 %
LINK_UTIL GPU: 0Port: 0 From GPU to CXL: 0 %  From CXL to GPU: 0 %
3189056 src 11 dest 25WARNING: Possible network deadlock.
LINK_UTIL GPU: 0Port: 0 From GPU to CXL: 0 %  From CXL to GPU: 0 %
LINK_UTIL GPU: 0Port: 0 From GPU to CXL: 0 %  From CXL to GPU: 0 %
LINK_UTIL GPU: 0Port: 0 From GPU to CXL: 0 %  From CXL to GPU: 0 %
LINK_UTIL GPU: 0Port: 0 From GPU to CXL: 0 %  From CXL to GPU: 0 %
GPU 0 thread block = 18,5,0
LINK_UTIL GPU: 0Port: 0 From GPU to CXL: 0 %  From CXL to GPU: 0 %
GPU 0 thread block = 19,5,0
GPU 0 thread block = 20,5,0
GPU 0 thread block = 21,5,0
LINK_UTIL GPU: 0Port: 0 From GPU to CXL: 0 %  From CXL to GPU: 0 %
LINK_UTIL GPU: 0Port: 0 From GPU to CXL: 0 %  From CXL to GPU: 0 %
LINK_UTIL GPU: 0Port: 0 From GPU to CXL: 0 %  From CXL to GPU: 0 %
LINK_UTIL GPU: 0Port: 0 From GPU to CXL: 0 %  From CXL to GPU: 0 %
GPU 0 thread block = 22,5,0
GPU 0 thread block = 23,5,0
LINK_UTIL GPU: 0Port: 0 From GPU to CXL: 0 %  From CXL to GPU: 0 %
GPU_ramulator_0 channel 0 6396 reqs
GPU_ramulator_1 channel 0 6630 reqs
GPU_ramulator_2 channel 0 6582 reqs
GPU_ramulator_3 channel 0 6457 reqs
GPU_ramulator_4 channel 0 6555 reqs
GPU_ramulator_5 channel 0 6569 reqs
GPU_ramulator_6 channel 0 6594 reqs
GPU_ramulator_7 channel 0 6636 reqs
GPU 0 thread block = 0,6,0
GPU 0 thread block = 1,6,0
LINK_UTIL GPU: 0Port: 0 From GPU to CXL: 0 %  From CXL to GPU: 0 %
GPU 0 thread block = 2,6,0


107/1536 thread blocks finished
Elapsed time: 0 h, 6 min
Expected remaining time: 1 h, 20 min


CXL_0_ramulator_0 channel 0 0 reqs
CXL_0_ramulator_0 channel 1 0 reqs
CXL_0_ramulator_0 channel 2 0 reqs
CXL_0_ramulator_0 channel 3 0 reqs
CXL_0_ramulator_0 channel 4 0 reqs
CXL_0_ramulator_0 channel 5 0 reqs
CXL_0_ramulator_0 channel 6 0 reqs
CXL_0_ramulator_0 channel 7 0 reqs
GPU 0 thread block = 3,6,0
LINK_UTIL GPU: 0Port: 0 From GPU to CXL: 0 %  From CXL to GPU: 0 %
GPU 0 thread block = 4,6,0
LINK_UTIL GPU: 0Port: 0 From GPU to CXL: 0 %  From CXL to GPU: 0 %
3318968 src 19 dest 25WARNING: Possible network deadlock.
LINK_UTIL GPU: 0Port: 0 From GPU to CXL: 0 %  From CXL to GPU: 0 %
GPU 0 thread block = 5,6,0
LINK_UTIL GPU: 0Port: 0 From GPU to CXL: 0.44 %  From CXL to GPU: 48.85 %
LINK_UTIL GPU: 0Port: 0 From GPU to CXL: 0.04 %  From CXL to GPU: 62.6 %
GPU 0 thread block = 6,6,0
LINK_UTIL GPU: 0Port: 0 From GPU to CXL: 0 %  From CXL to GPU: 62.45 %
LINK_UTIL GPU: 0Port: 0 From GPU to CXL: 0 %  From CXL to GPU: 62.15 %
GPU 0 thread block = 7,6,0
LINK_UTIL GPU: 0Port: 0 From GPU to CXL: 0 %  From CXL to GPU: 62.65 %
LINK_UTIL GPU: 0Port: 0 From GPU to CXL: 0 %  From CXL to GPU: 8.5 %
3370682 src 36 dest 30WARNING: Possible network deadlock.
LINK_UTIL GPU: 0Port: 0 From GPU to CXL: 0 %  From CXL to GPU: 0 %
GPU 0 thread block = 8,6,0
GPU 0 thread block = 9,6,0
LINK_UTIL GPU: 0Port: 0 From GPU to CXL: 0 %  From CXL to GPU: 0 %
LINK_UTIL GPU: 0Port: 0 From GPU to CXL: 0 %  From CXL to GPU: 0 %
GPU 0 thread block = 10,6,0
LINK_UTIL GPU: 0Port: 0 From GPU to CXL: 0 %  From CXL to GPU: 0 %


115/1536 thread blocks finished
Elapsed time: 0 h, 6 min
Expected remaining time: 1 h, 14 min


LINK_UTIL GPU: 0Port: 0 From GPU to CXL: 0 %  From CXL to GPU: 0 %
LINK_UTIL GPU: 0Port: 0 From GPU to CXL: 0 %  From CXL to GPU: 0 %
GPU 0 thread block = 11,6,0
LINK_UTIL GPU: 0Port: 0 From GPU to CXL: 0 %  From CXL to GPU: 0 %
CXL_0_ramulator_0 channel 0 768 reqs
CXL_0_ramulator_0 channel 1 768 reqs
CXL_0_ramulator_0 channel 2 768 reqs
CXL_0_ramulator_0 channel 3 768 reqs
CXL_0_ramulator_0 channel 4 768 reqs
CXL_0_ramulator_0 channel 5 768 reqs
CXL_0_ramulator_0 channel 6 768 reqs
CXL_0_ramulator_0 channel 7 768 reqs
GPU 0 thread block = 12,6,0
LINK_UTIL GPU: 0Port: 0 From GPU to CXL: 0 %  From CXL to GPU: 0 %
LINK_UTIL GPU: 0Port: 0 From GPU to CXL: 0 %  From CXL to GPU: 0 %
LINK_UTIL GPU: 0Port: 0 From GPU to CXL: 0 %  From CXL to GPU: 0 %
GPU_ramulator_0 channel 0 6455 reqs
GPU_ramulator_1 channel 0 6431 reqs
GPU_ramulator_2 channel 0 6376 reqs
GPU_ramulator_3 channel 0 6569 reqs
GPU_ramulator_4 channel 0 6361 reqs
GPU_ramulator_5 channel 0 6292 reqs
GPU_ramulator_6 channel 0 6478 reqs
GPU_ramulator_7 channel 0 6445 reqs
LINK_UTIL GPU: 0Port: 0 From GPU to CXL: 0 %  From CXL to GPU: 0 %
LINK_UTIL GPU: 0Port: 0 From GPU to CXL: 0 %  From CXL to GPU: 0 %
LINK_UTIL GPU: 0Port: 0 From GPU to CXL: 0 %  From CXL to GPU: 0 %
LINK_UTIL GPU: 0Port: 0 From GPU to CXL: 0 %  From CXL to GPU: 0 %
GPU 0 thread block = 13,6,0
LINK_UTIL GPU: 0Port: 0 From GPU to CXL: 0 %  From CXL to GPU: 0 %
LINK_UTIL GPU: 0Port: 0 From GPU to CXL: 0 %  From CXL to GPU: 0 %
GPU 0 thread block = 14,6,0
LINK_UTIL GPU: 0Port: 0 From GPU to CXL: 0 %  From CXL to GPU: 0 %


119/1536 thread blocks finished
Elapsed time: 0 h, 6 min
Expected remaining time: 1 h, 11 min


LINK_UTIL GPU: 0Port: 0 From GPU to CXL: 0 %  From CXL to GPU: 0 %
LINK_UTIL GPU: 0Port: 0 From GPU to CXL: 0 %  From CXL to GPU: 0 %
LINK_UTIL GPU: 0Port: 0 From GPU to CXL: 0 %  From CXL to GPU: 0 %
LINK_UTIL GPU: 0Port: 0 From GPU to CXL: 0 %  From CXL to GPU: 0 %
GPU 0 thread block = 15,6,0
GPU 0 thread block = 16,6,0
LINK_UTIL GPU: 0Port: 0 From GPU to CXL: 0 %  From CXL to GPU: 0 %
LINK_UTIL GPU: 0Port: 0 From GPU to CXL: 0 %  From CXL to GPU: 0 %
GPU 0 thread block = 17,6,0
CXL_0_ramulator_0 channel 0 0 reqs
CXL_0_ramulator_0 channel 1 0 reqs
CXL_0_ramulator_0 channel 2 0 reqs
CXL_0_ramulator_0 channel 3 0 reqs
CXL_0_ramulator_0 channel 4 0 reqs
CXL_0_ramulator_0 channel 5 0 reqs
CXL_0_ramulator_0 channel 6 0 reqs
CXL_0_ramulator_0 channel 7 0 reqs
GPU 0 thread block = 18,6,0
GPU 0 thread block = 19,6,0
LINK_UTIL GPU: 0Port: 0 From GPU to CXL: 0 %  From CXL to GPU: 0 %
LINK_UTIL GPU: 0Port: 0 From GPU to CXL: 0 %  From CXL to GPU: 0 %
LINK_UTIL GPU: 0Port: 0 From GPU to CXL: 0 %  From CXL to GPU: 0 %
GPU 0 thread block = 20,6,0
LINK_UTIL GPU: 0Port: 0 From GPU to CXL: 0 %  From CXL to GPU: 0 %
GPU 0 thread block = 21,6,0
LINK_UTIL GPU: 0Port: 0 From GPU to CXL: 0 %  From CXL to GPU: 0 %
3573003 src 12 dest 30WARNING: Possible network deadlock.
GPU 0 thread block = 22,6,0
LINK_UTIL GPU: 0Port: 0 From GPU to CXL: 0 %  From CXL to GPU: 0 %
GPU 0 thread block = 23,6,0


128/1536 thread blocks finished
Elapsed time: 0 h, 7 min
Expected remaining time: 1 h, 17 min


LINK_UTIL GPU: 0Port: 0 From GPU to CXL: 0 %  From CXL to GPU: 0 %
GPU_ramulator_0 channel 0 6609 reqs
GPU_ramulator_1 channel 0 6250 reqs
GPU_ramulator_2 channel 0 6604 reqs
GPU_ramulator_3 channel 0 6067 reqs
GPU_ramulator_4 channel 0 6003 reqs
GPU_ramulator_5 channel 0 6685 reqs
GPU_ramulator_6 channel 0 6107 reqs
GPU_ramulator_7 channel 0 6331 reqs
LINK_UTIL GPU: 0Port: 0 From GPU to CXL: 0 %  From CXL to GPU: 0 %
LINK_UTIL GPU: 0Port: 0 From GPU to CXL: 0 %  From CXL to GPU: 0 %
LINK_UTIL GPU: 0Port: 0 From GPU to CXL: 0 %  From CXL to GPU: 0 %
LINK_UTIL GPU: 0Port: 0 From GPU to CXL: 0 %  From CXL to GPU: 0 %
LINK_UTIL GPU: 0Port: 0 From GPU to CXL: 0 %  From CXL to GPU: 0 %
LINK_UTIL GPU: 0Port: 0 From GPU to CXL: 0 %  From CXL to GPU: 0 %
LINK_UTIL GPU: 0Port: 0 From GPU to CXL: 0 %  From CXL to GPU: 0 %
LINK_UTIL GPU: 0Port: 0 From GPU to CXL: 0 %  From CXL to GPU: 0 %
LINK_UTIL GPU: 0Port: 0 From GPU to CXL: 0 %  From CXL to GPU: 0 %
CXL_0_ramulator_0 channel 0 0 reqs
CXL_0_ramulator_0 channel 1 0 reqs
CXL_0_ramulator_0 channel 2 0 reqs
CXL_0_ramulator_0 channel 3 0 reqs
CXL_0_ramulator_0 channel 4 0 reqs
CXL_0_ramulator_0 channel 5 0 reqs
CXL_0_ramulator_0 channel 6 0 reqs
CXL_0_ramulator_0 channel 7 0 reqs
LINK_UTIL GPU: 0Port: 0 From GPU to CXL: 0 %  From CXL to GPU: 0 %
LINK_UTIL GPU: 0Port: 0 From GPU to CXL: 0 %  From CXL to GPU: 0 %
LINK_UTIL GPU: 0Port: 0 From GPU to CXL: 0 %  From CXL to GPU: 0 %


128/1536 thread blocks finished
Elapsed time: 0 h, 7 min
Expected remaining time: 1 h, 17 min


LINK_UTIL GPU: 0Port: 0 From GPU to CXL: 0 %  From CXL to GPU: 0 %
LINK_UTIL GPU: 0Port: 0 From GPU to CXL: 0 %  From CXL to GPU: 0 %
LINK_UTIL GPU: 0Port: 0 From GPU to CXL: 0 %  From CXL to GPU: 0 %
LINK_UTIL GPU: 0Port: 0 From GPU to CXL: 0 %  From CXL to GPU: 0 %
LINK_UTIL GPU: 0Port: 0 From GPU to CXL: 0 %  From CXL to GPU: 0 %
LINK_UTIL GPU: 0Port: 0 From GPU to CXL: 0 %  From CXL to GPU: 0 %
3702704 src 17 dest 30WARNING: Possible network deadlock.
LINK_UTIL GPU: 0Port: 0 From GPU to CXL: 0 %  From CXL to GPU: 0 %
LINK_UTIL GPU: 0Port: 0 From GPU to CXL: 0 %  From CXL to GPU: 0 %
GPU_ramulator_0 channel 0 6079 reqs
GPU_ramulator_1 channel 0 6097 reqs
GPU_ramulator_2 channel 0 6127 reqs
GPU_ramulator_3 channel 0 6051 reqs
GPU_ramulator_4 channel 0 6093 reqs
GPU_ramulator_5 channel 0 6273 reqs
GPU_ramulator_6 channel 0 6159 reqs
GPU_ramulator_7 channel 0 5788 reqs
LINK_UTIL GPU: 0Port: 0 From GPU to CXL: 0 %  From CXL to GPU: 0 %
LINK_UTIL GPU: 0Port: 0 From GPU to CXL: 0 %  From CXL to GPU: 0 %
LINK_UTIL GPU: 0Port: 0 From GPU to CXL: 0 %  From CXL to GPU: 0 %
LINK_UTIL GPU: 0Port: 0 From GPU to CXL: 0 %  From CXL to GPU: 0 %
LINK_UTIL GPU: 0Port: 0 From GPU to CXL: 0 %  From CXL to GPU: 0 %


128/1536 thread blocks finished
Elapsed time: 0 h, 7 min
Expected remaining time: 1 h, 17 min


CXL_0_ramulator_0 channel 0 0 reqs
CXL_0_ramulator_0 channel 1 0 reqs
CXL_0_ramulator_0 channel 2 0 reqs
CXL_0_ramulator_0 channel 3 0 reqs
CXL_0_ramulator_0 channel 4 0 reqs
CXL_0_ramulator_0 channel 5 0 reqs
CXL_0_ramulator_0 channel 6 0 reqs
CXL_0_ramulator_0 channel 7 0 reqs
LINK_UTIL GPU: 0Port: 0 From GPU to CXL: 0 %  From CXL to GPU: 0 %
LINK_UTIL GPU: 0Port: 0 From GPU to CXL: 0 %  From CXL to GPU: 0 %
LINK_UTIL GPU: 0Port: 0 From GPU to CXL: 0 %  From CXL to GPU: 0 %
LINK_UTIL GPU: 0Port: 0 From GPU to CXL: 0 %  From CXL to GPU: 0 %
LINK_UTIL GPU: 0Port: 0 From GPU to CXL: 0 %  From CXL to GPU: 0 %
LINK_UTIL GPU: 0Port: 0 From GPU to CXL: 0 %  From CXL to GPU: 0 %
LINK_UTIL GPU: 0Port: 0 From GPU to CXL: 0 %  From CXL to GPU: 0 %
LINK_UTIL GPU: 0Port: 0 From GPU to CXL: 0 %  From CXL to GPU: 0 %
LINK_UTIL GPU: 0Port: 0 From GPU to CXL: 0 %  From CXL to GPU: 0 %
LINK_UTIL GPU: 0Port: 0 From GPU to CXL: 0 %  From CXL to GPU: 0 %
LINK_UTIL GPU: 0Port: 0 From GPU to CXL: 0 %  From CXL to GPU: 0 %
LINK_UTIL GPU: 0Port: 0 From GPU to CXL: 0 %  From CXL to GPU: 0 %
LINK_UTIL GPU: 0Port: 0 From GPU to CXL: 0 %  From CXL to GPU: 0 %


128/1536 thread blocks finished
Elapsed time: 0 h, 7 min
Expected remaining time: 1 h, 17 min


LINK_UTIL GPU: 0Port: 0 From GPU to CXL: 0 %  From CXL to GPU: 0 %
LINK_UTIL GPU: 0Port: 0 From GPU to CXL: 0 %  From CXL to GPU: 0 %
GPU_ramulator_0 channel 0 5884 reqs
GPU_ramulator_1 channel 0 5793 reqs
GPU_ramulator_2 channel 0 5871 reqs
GPU_ramulator_3 channel 0 5984 reqs
GPU_ramulator_4 channel 0 5901 reqs
GPU_ramulator_5 channel 0 6098 reqs
GPU_ramulator_6 channel 0 5800 reqs
GPU_ramulator_7 channel 0 5874 reqs
LINK_UTIL GPU: 0Port: 0 From GPU to CXL: 0 %  From CXL to GPU: 0 %
CXL_0_ramulator_0 channel 0 0 reqs
CXL_0_ramulator_0 channel 1 0 reqs
CXL_0_ramulator_0 channel 2 0 reqs
CXL_0_ramulator_0 channel 3 0 reqs
CXL_0_ramulator_0 channel 4 0 reqs
CXL_0_ramulator_0 channel 5 0 reqs
CXL_0_ramulator_0 channel 6 0 reqs
CXL_0_ramulator_0 channel 7 0 reqs
LINK_UTIL GPU: 0Port: 0 From GPU to CXL: 0 %  From CXL to GPU: 0 %
LINK_UTIL GPU: 0Port: 0 From GPU to CXL: 0 %  From CXL to GPU: 0 %
LINK_UTIL GPU: 0Port: 0 From GPU to CXL: 0 %  From CXL to GPU: 0 %
LINK_UTIL GPU: 0Port: 0 From GPU to CXL: 0 %  From CXL to GPU: 0 %
LINK_UTIL GPU: 0Port: 0 From GPU to CXL: 0 %  From CXL to GPU: 0 %
LINK_UTIL GPU: 0Port: 0 From GPU to CXL: 0 %  From CXL to GPU: 0 %
LINK_UTIL GPU: 0Port: 0 From GPU to CXL: 0 %  From CXL to GPU: 0 %
LINK_UTIL GPU: 0Port: 0 From GPU to CXL: 0 %  From CXL to GPU: 0 %
LINK_UTIL GPU: 0Port: 0 From GPU to CXL: 0 %  From CXL to GPU: 0 %
LINK_UTIL GPU: 0Port: 0 From GPU to CXL: 0 %  From CXL to GPU: 0 %


128/1536 thread blocks finished
Elapsed time: 0 h, 7 min
Expected remaining time: 1 h, 17 min


LINK_UTIL GPU: 0Port: 0 From GPU to CXL: 0 %  From CXL to GPU: 0 %
LINK_UTIL GPU: 0Port: 0 From GPU to CXL: 0 %  From CXL to GPU: 0 %
LINK_UTIL GPU: 0Port: 0 From GPU to CXL: 0 %  From CXL to GPU: 0 %
LINK_UTIL GPU: 0Port: 0 From GPU to CXL: 0 %  From CXL to GPU: 0 %
LINK_UTIL GPU: 0Port: 0 From GPU to CXL: 0 %  From CXL to GPU: 0 %
LINK_UTIL GPU: 0Port: 0 From GPU to CXL: 0 %  From CXL to GPU: 0 %
CXL_0_ramulator_0 channel 0 0 reqs
CXL_0_ramulator_0 channel 1 0 reqs
CXL_0_ramulator_0 channel 2 0 reqs
CXL_0_ramulator_0 channel 3 0 reqs
CXL_0_ramulator_0 channel 4 0 reqs
CXL_0_ramulator_0 channel 5 0 reqs
CXL_0_ramulator_0 channel 6 0 reqs
CXL_0_ramulator_0 channel 7 0 reqs
LINK_UTIL GPU: 0Port: 0 From GPU to CXL: 0 %  From CXL to GPU: 0 %
LINK_UTIL GPU: 0Port: 0 From GPU to CXL: 0 %  From CXL to GPU: 0 %
LINK_UTIL GPU: 0Port: 0 From GPU to CXL: 0 %  From CXL to GPU: 0 %
GPU_ramulator_0 channel 0 6254 reqs
GPU_ramulator_1 channel 0 6277 reqs
GPU_ramulator_2 channel 0 6365 reqs
GPU_ramulator_3 channel 0 6182 reqs
GPU_ramulator_4 channel 0 6314 reqs
GPU_ramulator_5 channel 0 6283 reqs
GPU_ramulator_6 channel 0 6361 reqs
GPU_ramulator_7 channel 0 6329 reqs
LINK_UTIL GPU: 0Port: 0 From GPU to CXL: 0 %  From CXL to GPU: 0 %
GPU 0 thread block = 0,7,0
LINK_UTIL GPU: 0Port: 0 From GPU to CXL: 0 %  From CXL to GPU: 0 %
LINK_UTIL GPU: 0Port: 0 From GPU to CXL: 0 %  From CXL to GPU: 0 %


129/1536 thread blocks finished
Elapsed time: 0 h, 8 min
Expected remaining time: 1 h, 27 min


SIMD 0 FINALIZER 3072/3072 
SIMD 1 FINALIZER 3072/3072 
SIMD 2 FINALIZER 3072/3072 
SIMD 3 FINALIZER 3072/3072 
SIMD 4 FINALIZER 3072/3072 
SIMD 5 FINALIZER 3072/3072 
SIMD 6 FINALIZER 3072/3072 
SIMD 7 FINALIZER 3072/3072 
LINK_UTIL GPU: 0Port: 0 From GPU to CXL: 0.48 %  From CXL to GPU: 48.8 %
GPU 0 thread block = 1,7,0
LINK_UTIL GPU: 0Port: 0 From GPU to CXL: 0 %  From CXL to GPU: 62.6 %
EXIT simd 0, 31 1function slot 0, finish counter 15
EXIT simd 1, 31 1function slot 0, finish counter 15
EXIT simd 2, 31 1function slot 0, finish counter 15
EXIT simd 3, 31 1function slot 0, finish counter 15
EXIT simd 4, 31 1function slot 0, finish counter 15
EXIT simd 5, 31 1function slot 0, finish counter 15
EXIT simd 6, 31 1function slot 0, finish counter 15
EXIT simd 7, 31 1function slot 0, finish counter 15
LINK_UTIL GPU: 0Port: 0 From GPU to CXL: 0 %  From CXL to GPU: 62.7 %
LINK_UTIL GPU: 0Port: 0 From GPU to CXL: 0 %  From CXL to GPU: 62.35 %
LINK_UTIL GPU: 0Port: 0 From GPU to CXL: 0 %  From CXL to GPU: 62.5 %
LINK_UTIL GPU: 0Port: 0 From GPU to CXL: 0 %  From CXL to GPU: 8.25 %
GPU 0 thread block = 2,7,0
LINK_UTIL GPU: 0Port: 0 From GPU to CXL: 0 %  From CXL to GPU: 0 %
LINK_UTIL GPU: 0Port: 0 From GPU to CXL: 0 %  From CXL to GPU: 0 %
LINK_UTIL GPU: 0Port: 0 From GPU to CXL: 0 %  From CXL to GPU: 0 %
LINK_UTIL GPU: 0Port: 0 From GPU to CXL: 0 %  From CXL to GPU: 0 %
GPU 0 thread block = 3,7,0
CXL_0_ramulator_0 channel 0 768 reqs
CXL_0_ramulator_0 channel 1 768 reqs
CXL_0_ramulator_0 channel 2 768 reqs
CXL_0_ramulator_0 channel 3 768 reqs
CXL_0_ramulator_0 channel 4 768 reqs
CXL_0_ramulator_0 channel 5 768 reqs
CXL_0_ramulator_0 channel 6 768 reqs
CXL_0_ramulator_0 channel 7 768 reqs
LINK_UTIL GPU: 0Port: 0 From GPU to CXL: 0 %  From CXL to GPU: 0 %
LINK_UTIL GPU: 0Port: 0 From GPU to CXL: 0 %  From CXL to GPU: 0 %
GPU 0 thread block = 4,7,0
LINK_UTIL GPU: 0Port: 0 From GPU to CXL: 0 %  From CXL to GPU: 0 %


133/1536 thread blocks finished
Elapsed time: 0 h, 8 min
Expected remaining time: 1 h, 24 min


LINK_UTIL GPU: 0Port: 0 From GPU to CXL: 0 %  From CXL to GPU: 0 %
GPU 0 thread block = 5,7,0
LINK_UTIL GPU: 0Port: 0 From GPU to CXL: 0 %  From CXL to GPU: 0 %
GPU 0 thread block = 6,7,0
GPU 0 thread block = 7,7,0
LINK_UTIL GPU: 0Port: 0 From GPU to CXL: 0 %  From CXL to GPU: 0 %
GPU 0 thread block = 8,7,0
GPU 0 thread block = 9,7,0
LINK_UTIL GPU: 0Port: 0 From GPU to CXL: 0 %  From CXL to GPU: 0 %
4237745 src 12 dest 28WARNING: Possible network deadlock.
LINK_UTIL GPU: 0Port: 0 From GPU to CXL: 0 %  From CXL to GPU: 0 %
GPU_ramulator_0 channel 0 6794 reqs
GPU_ramulator_1 channel 0 6694 reqs
GPU_ramulator_2 channel 0 6630 reqs
GPU_ramulator_3 channel 0 6800 reqs
GPU_ramulator_4 channel 0 6713 reqs
GPU_ramulator_5 channel 0 6732 reqs
GPU_ramulator_6 channel 0 6463 reqs
GPU_ramulator_7 channel 0 6808 reqs
LINK_UTIL GPU: 0Port: 0 From GPU to CXL: 0 %  From CXL to GPU: 0 %
LINK_UTIL GPU: 0Port: 0 From GPU to CXL: 0 %  From CXL to GPU: 0 %
LINK_UTIL GPU: 0Port: 0 From GPU to CXL: 0 %  From CXL to GPU: 0 %
[...]
LINK_UTIL GPU: 0Port: 0 From GPU to CXL: 0 %  From CXL to GPU: 0 %
GPU 0 thread block = 23,62,0
GPU 0 thread block = 0,63,0
LINK_UTIL GPU: 0Port: 0 From GPU to CXL: 0 %  From CXL to GPU: 0 %
LINK_UTIL GPU: 0Port: 0 From GPU to CXL: 0 %  From CXL to GPU: 0 %
LINK_UTIL GPU: 0Port: 0 From GPU to CXL: 0 %  From CXL to GPU: 0 %
CXL_0_ramulator_0 channel 0 0 reqs
CXL_0_ramulator_0 channel 1 0 reqs
CXL_0_ramulator_0 channel 2 0 reqs
CXL_0_ramulator_0 channel 3 0 reqs
CXL_0_ramulator_0 channel 4 0 reqs
CXL_0_ramulator_0 channel 5 0 reqs
CXL_0_ramulator_0 channel 6 0 reqs
CXL_0_ramulator_0 channel 7 0 reqs
LINK_UTIL GPU: 0Port: 0 From GPU to CXL: 0.02 %  From CXL to GPU: 0 %
LINK_UTIL GPU: 0Port: 0 From GPU to CXL: 0.04 %  From CXL to GPU: 38.4 %
SIMD 0 FINALIZER 3072/3072 
SIMD 1 FINALIZER 3072/3072 
SIMD 2 FINALIZER 3072/3072 
SIMD 3 FINALIZER 3072/3072 
SIMD 4 FINALIZER 3072/3072 
SIMD 5 FINALIZER 3072/3072 
SIMD 6 FINALIZER 3072/3072 
SIMD 7 FINALIZER 3072/3072 
LINK_UTIL GPU: 0Port: 0 From GPU to CXL: 0.42 %  From CXL to GPU: 55.65 %
EXIT simd 0, 31 1function slot 0, finish counter 1
finish function 0 b790d700
EXIT simd 1, 31 1function slot 0, finish counter 1
finish function 0 b790d700
EXIT simd 2, 31 1function slot 0, finish counter 1
finish function 0 b790d700
EXIT simd 3, 31 1function slot 0, finish counter 1
finish function 0 b790d700
EXIT simd 4, 31 1function slot 0, finish counter 1
finish function 0 b790d700
EXIT simd 5, 31 1function slot 0, finish counter 1
finish function 0 b790d700
EXIT simd 6, 31 1function slot 0, finish counter 1
finish function 0 b790d700
EXIT simd 7, 31 1function slot 0, finish counter 1
finish function 0 b790d700
Gantt info: gpu 0 finished NDP kernel  _NDP_fw_bert_output_ph3 at cycle 3877548 at CXL 0
[cxl_memory_buffer 0]	Kernel finished:  _NDP_fw_bert_output_ph3 current cycle 3877548
LINK_UTIL GPU: 0Port: 0 From GPU to CXL: 0 %  From CXL to GPU: 62.7 %
LINK_UTIL GPU: 0Port: 0 From GPU to CXL: 0 %  From CXL to GPU: 62.55 %
LINK_UTIL GPU: 0Port: 0 From GPU to CXL: 0 %  From CXL to GPU: 62.5 %


1473/1536 thread blocks finished
Elapsed time: 1 h, 26 min
Expected remaining time: 0 h, 3 min


LINK_UTIL GPU: 0Port: 0 From GPU to CXL: 0 %  From CXL to GPU: 25.4 %
GPU 0 thread block = 1,63,0
LINK_UTIL GPU: 0Port: 0 From GPU to CXL: 0 %  From CXL to GPU: 0 %
GPU 0 thread block = 2,63,0
GPU 0 thread block = 3,63,0
LINK_UTIL GPU: 0Port: 0 From GPU to CXL: 0 %  From CXL to GPU: 0 %
LINK_UTIL GPU: 0Port: 0 From GPU to CXL: 0 %  From CXL to GPU: 0 %
GPU 0 thread block = 4,63,0
LINK_UTIL GPU: 0Port: 0 From GPU to CXL: 0 %  From CXL to GPU: 0 %
LINK_UTIL GPU: 0Port: 0 From GPU to CXL: 0 %  From CXL to GPU: 0 %
GPU 0 thread block = 5,63,0
LINK_UTIL GPU: 0Port: 0 From GPU to CXL: 0 %  From CXL to GPU: 0 %
LINK_UTIL GPU: 0Port: 0 From GPU to CXL: 0 %  From CXL to GPU: 0 %
GPU_ramulator_0 channel 0 6336 reqs
GPU_ramulator_1 channel 0 6174 reqs
GPU_ramulator_2 channel 0 6129 reqs
GPU_ramulator_3 channel 0 6260 reqs
GPU_ramulator_4 channel 0 6278 reqs
GPU_ramulator_5 channel 0 6012 reqs
GPU_ramulator_6 channel 0 6328 reqs
GPU_ramulator_7 channel 0 6235 reqs
LINK_UTIL GPU: 0Port: 0 From GPU to CXL: 0 %  From CXL to GPU: 0 %
GPU 0 thread block = 6,63,0
LINK_UTIL GPU: 0Port: 0 From GPU to CXL: 0 %  From CXL to GPU: 0 %
CXL_0_ramulator_0 channel 0 768 reqs
CXL_0_ramulator_0 channel 1 768 reqs
CXL_0_ramulator_0 channel 2 768 reqs
CXL_0_ramulator_0 channel 3 768 reqs
CXL_0_ramulator_0 channel 4 768 reqs
CXL_0_ramulator_0 channel 5 768 reqs
CXL_0_ramulator_0 channel 6 768 reqs
CXL_0_ramulator_0 channel 7 768 reqs
LINK_UTIL GPU: 0Port: 0 From GPU to CXL: 0 %  From CXL to GPU: 0 %
GPU 0 thread block = 7,63,0
LINK_UTIL GPU: 0Port: 0 From GPU to CXL: 0 %  From CXL to GPU: 0 %
LINK_UTIL GPU: 0Port: 0 From GPU to CXL: 0 %  From CXL to GPU: 0 %


1480/1536 thread blocks finished
Elapsed time: 1 h, 26 min
Expected remaining time: 0 h, 3 min


GPU 0 thread block = 8,63,0
LINK_UTIL GPU: 0Port: 0 From GPU to CXL: 0 %  From CXL to GPU: 0 %
40201876 src 9 dest 31WARNING: Possible network deadlock.
LINK_UTIL GPU: 0Port: 0 From GPU to CXL: 0 %  From CXL to GPU: 0 %
GPU 0 thread block = 9,63,0
LINK_UTIL GPU: 0Port: 0 From GPU to CXL: 0 %  From CXL to GPU: 0 %
GPU 0 thread block = 10,63,0
LINK_UTIL GPU: 0Port: 0 From GPU to CXL: 0 %  From CXL to GPU: 0 %
LINK_UTIL GPU: 0Port: 0 From GPU to CXL: 0 %  From CXL to GPU: 0 %
LINK_UTIL GPU: 0Port: 0 From GPU to CXL: 0 %  From CXL to GPU: 0 %
LINK_UTIL GPU: 0Port: 0 From GPU to CXL: 0 %  From CXL to GPU: 0 %
GPU 0 thread block = 11,63,0
LINK_UTIL GPU: 0Port: 0 From GPU to CXL: 0 %  From CXL to GPU: 0 %
LINK_UTIL GPU: 0Port: 0 From GPU to CXL: 0 %  From CXL to GPU: 0 %
LINK_UTIL GPU: 0Port: 0 From GPU to CXL: 0 %  From CXL to GPU: 0 %
LINK_UTIL GPU: 0Port: 0 From GPU to CXL: 0 %  From CXL to GPU: 0 %
LINK_UTIL GPU: 0Port: 0 From GPU to CXL: 0 %  From CXL to GPU: 0 %
LINK_UTIL GPU: 0Port: 0 From GPU to CXL: 0 %  From CXL to GPU: 0 %


1484/1536 thread blocks finished
Elapsed time: 1 h, 26 min
Expected remaining time: 0 h, 3 min


CXL_0_ramulator_0 channel 0 0 reqs
CXL_0_ramulator_0 channel 1 0 reqs
CXL_0_ramulator_0 channel 2 0 reqs
CXL_0_ramulator_0 channel 3 0 reqs
CXL_0_ramulator_0 channel 4 0 reqs
CXL_0_ramulator_0 channel 5 0 reqs
CXL_0_ramulator_0 channel 6 0 reqs
CXL_0_ramulator_0 channel 7 0 reqs
LINK_UTIL GPU: 0Port: 0 From GPU to CXL: 0 %  From CXL to GPU: 0 %
LINK_UTIL GPU: 0Port: 0 From GPU to CXL: 0 %  From CXL to GPU: 0 %
LINK_UTIL GPU: 0Port: 0 From GPU to CXL: 0 %  From CXL to GPU: 0 %
GPU_ramulator_0 channel 0 6496 reqs
GPU_ramulator_1 channel 0 6413 reqs
GPU_ramulator_2 channel 0 6084 reqs
GPU_ramulator_3 channel 0 6413 reqs
GPU_ramulator_4 channel 0 6410 reqs
GPU_ramulator_5 channel 0 6399 reqs
GPU_ramulator_6 channel 0 6481 reqs
GPU_ramulator_7 channel 0 6345 reqs
GPU 0 thread block = 12,63,0
GPU 0 thread block = 13,63,0
LINK_UTIL GPU: 0Port: 0 From GPU to CXL: 0 %  From CXL to GPU: 0 %
GPU 0 thread block = 14,63,0
GPU 0 thread block = 15,63,0
LINK_UTIL GPU: 0Port: 0 From GPU to CXL: 0 %  From CXL to GPU: 0 %
LINK_UTIL GPU: 0Port: 0 From GPU to CXL: 0 %  From CXL to GPU: 0 %
LINK_UTIL GPU: 0Port: 0 From GPU to CXL: 0 %  From CXL to GPU: 0 %
LINK_UTIL GPU: 0Port: 0 From GPU to CXL: 0 %  From CXL to GPU: 0 %
LINK_UTIL GPU: 0Port: 0 From GPU to CXL: 0 %  From CXL to GPU: 0 %
40367293 src 10 dest 26WARNING: Possible network deadlock.
LINK_UTIL GPU: 0Port: 0 From GPU to CXL: 0 %  From CXL to GPU: 0 %
GPU 0 thread block = 16,63,0
GPU 0 thread block = 17,63,0
LINK_UTIL GPU: 0Port: 0 From GPU to CXL: 0 %  From CXL to GPU: 0 %
LINK_UTIL GPU: 0Port: 0 From GPU to CXL: 0 %  From CXL to GPU: 0 %


1490/1536 thread blocks finished
Elapsed time: 1 h, 26 min
Expected remaining time: 0 h, 2 min


LINK_UTIL GPU: 0Port: 0 From GPU to CXL: 0 %  From CXL to GPU: 0 %
LINK_UTIL GPU: 0Port: 0 From GPU to CXL: 0 %  From CXL to GPU: 0 %
LINK_UTIL GPU: 0Port: 0 From GPU to CXL: 0 %  From CXL to GPU: 0 %
LINK_UTIL GPU: 0Port: 0 From GPU to CXL: 0 %  From CXL to GPU: 0 %
CXL_0_ramulator_0 channel 0 0 reqs
CXL_0_ramulator_0 channel 1 0 reqs
CXL_0_ramulator_0 channel 2 0 reqs
CXL_0_ramulator_0 channel 3 0 reqs
CXL_0_ramulator_0 channel 4 0 reqs
CXL_0_ramulator_0 channel 5 0 reqs
CXL_0_ramulator_0 channel 6 0 reqs
CXL_0_ramulator_0 channel 7 0 reqs
LINK_UTIL GPU: 0Port: 0 From GPU to CXL: 0 %  From CXL to GPU: 0 %
LINK_UTIL GPU: 0Port: 0 From GPU to CXL: 0 %  From CXL to GPU: 0 %
LINK_UTIL GPU: 0Port: 0 From GPU to CXL: 0 %  From CXL to GPU: 0 %
GPU 0 thread block = 18,63,0
LINK_UTIL GPU: 0Port: 0 From GPU to CXL: 0 %  From CXL to GPU: 0 %
LINK_UTIL GPU: 0Port: 0 From GPU to CXL: 0 %  From CXL to GPU: 0 %
LINK_UTIL GPU: 0Port: 0 From GPU to CXL: 0 %  From CXL to GPU: 0 %
GPU 0 thread block = 19,63,0
LINK_UTIL GPU: 0Port: 0 From GPU to CXL: 0 %  From CXL to GPU: 0 %
GPU_ramulator_0 channel 0 6243 reqs
GPU_ramulator_1 channel 0 6287 reqs
GPU_ramulator_2 channel 0 6254 reqs
GPU_ramulator_3 channel 0 6350 reqs
GPU_ramulator_4 channel 0 6356 reqs
GPU_ramulator_5 channel 0 6482 reqs
GPU_ramulator_6 channel 0 6417 reqs
GPU_ramulator_7 channel 0 6219 reqs
LINK_UTIL GPU: 0Port: 0 From GPU to CXL: 0 %  From CXL to GPU: 0 %
GPU 0 thread block = 20,63,0
LINK_UTIL GPU: 0Port: 0 From GPU to CXL: 0 %  From CXL to GPU: 0 %


1493/1536 thread blocks finished
Elapsed time: 1 h, 27 min
Expected remaining time: 0 h, 2 min


LINK_UTIL GPU: 0Port: 0 From GPU to CXL: 0 %  From CXL to GPU: 0 %
LINK_UTIL GPU: 0Port: 0 From GPU to CXL: 0 %  From CXL to GPU: 0 %
LINK_UTIL GPU: 0Port: 0 From GPU to CXL: 0 %  From CXL to GPU: 0 %
LINK_UTIL GPU: 0Port: 0 From GPU to CXL: 0 %  From CXL to GPU: 0 %
LINK_UTIL GPU: 0Port: 0 From GPU to CXL: 0 %  From CXL to GPU: 0 %
LINK_UTIL GPU: 0Port: 0 From GPU to CXL: 0 %  From CXL to GPU: 0 %
LINK_UTIL GPU: 0Port: 0 From GPU to CXL: 0 %  From CXL to GPU: 0 %
CXL_0_ramulator_0 channel 0 0 reqs
CXL_0_ramulator_0 channel 1 0 reqs
CXL_0_ramulator_0 channel 2 0 reqs
CXL_0_ramulator_0 channel 3 0 reqs
CXL_0_ramulator_0 channel 4 0 reqs
CXL_0_ramulator_0 channel 5 0 reqs
CXL_0_ramulator_0 channel 6 0 reqs
CXL_0_ramulator_0 channel 7 0 reqs
LINK_UTIL GPU: 0Port: 0 From GPU to CXL: 0 %  From CXL to GPU: 0 %
GPU 0 thread block = 21,63,0
LINK_UTIL GPU: 0Port: 0 From GPU to CXL: 0 %  From CXL to GPU: 0 %
LINK_UTIL GPU: 0Port: 0 From GPU to CXL: 0 %  From CXL to GPU: 0 %
GPU 0 thread block = 22,63,0
LINK_UTIL GPU: 0Port: 0 From GPU to CXL: 0 %  From CXL to GPU: 0 %
40603251 src 5 dest 30WARNING: Possible network deadlock.
LINK_UTIL GPU: 0Port: 0 From GPU to CXL: 0 %  From CXL to GPU: 0 %
LINK_UTIL GPU: 0Port: 0 From GPU to CXL: 0 %  From CXL to GPU: 0 %


1495/1536 thread blocks finished
Elapsed time: 1 h, 27 min
Expected remaining time: 0 h, 2 min


LINK_UTIL GPU: 0Port: 0 From GPU to CXL: 0 %  From CXL to GPU: 0 %
LINK_UTIL GPU: 0Port: 0 From GPU to CXL: 0 %  From CXL to GPU: 0 %
GPU 0 thread block = 23,63,0
LINK_UTIL GPU: 0Port: 0 From GPU to CXL: 0 %  From CXL to GPU: 0 %
LINK_UTIL GPU: 0Port: 0 From GPU to CXL: 0 %  From CXL to GPU: 0 %
LINK_UTIL GPU: 0Port: 0 From GPU to CXL: 0 %  From CXL to GPU: 0 %
GPU_ramulator_0 channel 0 6339 reqs
GPU_ramulator_1 channel 0 6352 reqs
GPU_ramulator_2 channel 0 6494 reqs
GPU_ramulator_3 channel 0 6528 reqs
GPU_ramulator_4 channel 0 6449 reqs
GPU_ramulator_5 channel 0 6393 reqs
GPU_ramulator_6 channel 0 6285 reqs
GPU_ramulator_7 channel 0 6528 reqs
LINK_UTIL GPU: 0Port: 0 From GPU to CXL: 0 %  From CXL to GPU: 0 %
LINK_UTIL GPU: 0Port: 0 From GPU to CXL: 0 %  From CXL to GPU: 0 %
LINK_UTIL GPU: 0Port: 0 From GPU to CXL: 0 %  From CXL to GPU: 0 %
LINK_UTIL GPU: 0Port: 0 From GPU to CXL: 0 %  From CXL to GPU: 0 %
LINK_UTIL GPU: 0Port: 0 From GPU to CXL: 0 %  From CXL to GPU: 0 %
CXL_0_ramulator_0 channel 0 0 reqs
CXL_0_ramulator_0 channel 1 0 reqs
CXL_0_ramulator_0 channel 2 0 reqs
CXL_0_ramulator_0 channel 3 0 reqs
CXL_0_ramulator_0 channel 4 0 reqs
CXL_0_ramulator_0 channel 5 0 reqs
CXL_0_ramulator_0 channel 6 0 reqs
CXL_0_ramulator_0 channel 7 0 reqs
LINK_UTIL GPU: 0Port: 0 From GPU to CXL: 0 %  From CXL to GPU: 0 %
LINK_UTIL GPU: 0Port: 0 From GPU to CXL: 0 %  From CXL to GPU: 0 %
LINK_UTIL GPU: 0Port: 0 From GPU to CXL: 0 %  From CXL to GPU: 0 %


1500/1536 thread blocks finished
Elapsed time: 1 h, 27 min
Expected remaining time: 0 h, 2 min


LINK_UTIL GPU: 0Port: 0 From GPU to CXL: 0 %  From CXL to GPU: 0 %
LINK_UTIL GPU: 0Port: 0 From GPU to CXL: 0 %  From CXL to GPU: 0 %
LINK_UTIL GPU: 0Port: 0 From GPU to CXL: 0 %  From CXL to GPU: 0 %
LINK_UTIL GPU: 0Port: 0 From GPU to CXL: 0 %  From CXL to GPU: 0 %
LINK_UTIL GPU: 0Port: 0 From GPU to CXL: 0 %  From CXL to GPU: 0 %
LINK_UTIL GPU: 0Port: 0 From GPU to CXL: 0 %  From CXL to GPU: 0 %
40790445 src 1 dest 30WARNING: Possible network deadlock.
LINK_UTIL GPU: 0Port: 0 From GPU to CXL: 0 %  From CXL to GPU: 0 %
LINK_UTIL GPU: 0Port: 0 From GPU to CXL: 0 %  From CXL to GPU: 0 %
LINK_UTIL GPU: 0Port: 0 From GPU to CXL: 0 %  From CXL to GPU: 0 %
LINK_UTIL GPU: 0Port: 0 From GPU to CXL: 0 %  From CXL to GPU: 0 %
LINK_UTIL GPU: 0Port: 0 From GPU to CXL: 0 %  From CXL to GPU: 0 %
LINK_UTIL GPU: 0Port: 0 From GPU to CXL: 0 %  From CXL to GPU: 0 %
GPU_ramulator_0 channel 0 6385 reqs
GPU_ramulator_1 channel 0 6534 reqs
GPU_ramulator_2 channel 0 6466 reqs
GPU_ramulator_3 channel 0 6393 reqs
GPU_ramulator_4 channel 0 6509 reqs
GPU_ramulator_5 channel 0 6438 reqs
GPU_ramulator_6 channel 0 6593 reqs
GPU_ramulator_7 channel 0 6544 reqs


1502/1536 thread blocks finished
Elapsed time: 1 h, 27 min
Expected remaining time: 0 h, 1 min


LINK_UTIL GPU: 0Port: 0 From GPU to CXL: 0 %  From CXL to GPU: 0 %
CXL_0_ramulator_0 channel 0 0 reqs
CXL_0_ramulator_0 channel 1 0 reqs
CXL_0_ramulator_0 channel 2 0 reqs
CXL_0_ramulator_0 channel 3 0 reqs
CXL_0_ramulator_0 channel 4 0 reqs
CXL_0_ramulator_0 channel 5 0 reqs
CXL_0_ramulator_0 channel 6 0 reqs
CXL_0_ramulator_0 channel 7 0 reqs
LINK_UTIL GPU: 0Port: 0 From GPU to CXL: 0 %  From CXL to GPU: 0 %
LINK_UTIL GPU: 0Port: 0 From GPU to CXL: 0 %  From CXL to GPU: 0 %
LINK_UTIL GPU: 0Port: 0 From GPU to CXL: 0 %  From CXL to GPU: 0 %
LINK_UTIL GPU: 0Port: 0 From GPU to CXL: 0 %  From CXL to GPU: 0 %
LINK_UTIL GPU: 0Port: 0 From GPU to CXL: 0 %  From CXL to GPU: 0 %
LINK_UTIL GPU: 0Port: 0 From GPU to CXL: 0 %  From CXL to GPU: 0 %
LINK_UTIL GPU: 0Port: 0 From GPU to CXL: 0 %  From CXL to GPU: 0 %
LINK_UTIL GPU: 0Port: 0 From GPU to CXL: 0 %  From CXL to GPU: 0 %
LINK_UTIL GPU: 0Port: 0 From GPU to CXL: 0 %  From CXL to GPU: 0 %
LINK_UTIL GPU: 0Port: 0 From GPU to CXL: 0 %  From CXL to GPU: 0 %
LINK_UTIL GPU: 0Port: 0 From GPU to CXL: 0 %  From CXL to GPU: 0 %
LINK_UTIL GPU: 0Port: 0 From GPU to CXL: 0 %  From CXL to GPU: 0 %


1507/1536 thread blocks finished
Elapsed time: 1 h, 27 min
Expected remaining time: 0 h, 1 min


LINK_UTIL GPU: 0Port: 0 From GPU to CXL: 0 %  From CXL to GPU: 0 %
LINK_UTIL GPU: 0Port: 0 From GPU to CXL: 0 %  From CXL to GPU: 0 %
LINK_UTIL GPU: 0Port: 0 From GPU to CXL: 0 %  From CXL to GPU: 0 %
LINK_UTIL GPU: 0Port: 0 From GPU to CXL: 0 %  From CXL to GPU: 0 %
CXL_0_ramulator_0 channel 0 0 reqs
CXL_0_ramulator_0 channel 1 0 reqs
CXL_0_ramulator_0 channel 2 0 reqs
CXL_0_ramulator_0 channel 3 0 reqs
CXL_0_ramulator_0 channel 4 0 reqs
CXL_0_ramulator_0 channel 5 0 reqs
CXL_0_ramulator_0 channel 6 0 reqs
CXL_0_ramulator_0 channel 7 0 reqs
LINK_UTIL GPU: 0Port: 0 From GPU to CXL: 0 %  From CXL to GPU: 0 %
LINK_UTIL GPU: 0Port: 0 From GPU to CXL: 0 %  From CXL to GPU: 0 %
LINK_UTIL GPU: 0Port: 0 From GPU to CXL: 0 %  From CXL to GPU: 0 %
GPU_ramulator_0 channel 0 6705 reqs
GPU_ramulator_1 channel 0 6653 reqs
GPU_ramulator_2 channel 0 6617 reqs
GPU_ramulator_3 channel 0 6554 reqs
GPU_ramulator_4 channel 0 6577 reqs
GPU_ramulator_5 channel 0 6534 reqs
GPU_ramulator_6 channel 0 6619 reqs
GPU_ramulator_7 channel 0 6443 reqs
LINK_UTIL GPU: 0Port: 0 From GPU to CXL: 0 %  From CXL to GPU: 0 %
LINK_UTIL GPU: 0Port: 0 From GPU to CXL: 0 %  From CXL to GPU: 0 %
LINK_UTIL GPU: 0Port: 0 From GPU to CXL: 0 %  From CXL to GPU: 0 %
LINK_UTIL GPU: 0Port: 0 From GPU to CXL: 0 %  From CXL to GPU: 0 %
LINK_UTIL GPU: 0Port: 0 From GPU to CXL: 0 %  From CXL to GPU: 0 %
LINK_UTIL GPU: 0Port: 0 From GPU to CXL: 0 %  From CXL to GPU: 0 %


1514/1536 thread blocks finished
Elapsed time: 1 h, 28 min
Expected remaining time: 0 h, 1 min


LINK_UTIL GPU: 0Port: 0 From GPU to CXL: 0 %  From CXL to GPU: 0 %
LINK_UTIL GPU: 0Port: 0 From GPU to CXL: 0 %  From CXL to GPU: 0 %
LINK_UTIL GPU: 0Port: 0 From GPU to CXL: 0 %  From CXL to GPU: 0 %
LINK_UTIL GPU: 0Port: 0 From GPU to CXL: 0 %  From CXL to GPU: 0 %
LINK_UTIL GPU: 0Port: 0 From GPU to CXL: 0 %  From CXL to GPU: 0 %
LINK_UTIL GPU: 0Port: 0 From GPU to CXL: 0 %  From CXL to GPU: 0 %
LINK_UTIL GPU: 0Port: 0 From GPU to CXL: 0 %  From CXL to GPU: 0 %
CXL_0_ramulator_0 channel 0 0 reqs
CXL_0_ramulator_0 channel 1 0 reqs
CXL_0_ramulator_0 channel 2 0 reqs
CXL_0_ramulator_0 channel 3 0 reqs
CXL_0_ramulator_0 channel 4 0 reqs
CXL_0_ramulator_0 channel 5 0 reqs
CXL_0_ramulator_0 channel 6 0 reqs
CXL_0_ramulator_0 channel 7 0 reqs
LINK_UTIL GPU: 0Port: 0 From GPU to CXL: 0 %  From CXL to GPU: 0 %
LINK_UTIL GPU: 0Port: 0 From GPU to CXL: 0 %  From CXL to GPU: 0 %
LINK_UTIL GPU: 0Port: 0 From GPU to CXL: 0 %  From CXL to GPU: 0 %
LINK_UTIL GPU: 0Port: 0 From GPU to CXL: 0 %  From CXL to GPU: 0 %
LINK_UTIL GPU: 0Port: 0 From GPU to CXL: 0 %  From CXL to GPU: 0 %
LINK_UTIL GPU: 0Port: 0 From GPU to CXL: 0 %  From CXL to GPU: 0 %


1528/1536 thread blocks finished
Elapsed time: 1 h, 28 min
Expected remaining time: 0 h, 0 min


LINK_UTIL GPU: 0Port: 0 From GPU to CXL: 0 %  From CXL to GPU: 0 %
GPU_ramulator_0 channel 0 5074 reqs
GPU_ramulator_1 channel 0 4961 reqs
GPU_ramulator_2 channel 0 4999 reqs
GPU_ramulator_3 channel 0 5117 reqs
GPU_ramulator_4 channel 0 5190 reqs
GPU_ramulator_5 channel 0 5412 reqs
GPU_ramulator_6 channel 0 4985 reqs
GPU_ramulator_7 channel 0 5093 reqs
LINK_UTIL GPU: 0Port: 0 From GPU to CXL: 0 %  From CXL to GPU: 0 %
LINK_UTIL GPU: 0Port: 0 From GPU to CXL: 0 %  From CXL to GPU: 0 %
LINK_UTIL GPU: 0Port: 0 From GPU to CXL: 0 %  From CXL to GPU: 0 %
LINK_UTIL GPU: 0Port: 0 From GPU to CXL: 0 %  From CXL to GPU: 0 %
LINK_UTIL GPU: 0Port: 0 From GPU to CXL: 0 %  From CXL to GPU: 0 %
LINK_UTIL GPU: 0Port: 0 From GPU to CXL: 0 %  From CXL to GPU: 0 %
LINK_UTIL GPU: 0Port: 0 From GPU to CXL: 0 %  From CXL to GPU: 0 %
LINK_UTIL GPU: 0Port: 0 From GPU to CXL: 0 %  From CXL to GPU: 0 %
LINK_UTIL GPU: 0Port: 0 From GPU to CXL: 0 %  From CXL to GPU: 0 %
CXL_0_ramulator_0 channel 0 0 reqs
CXL_0_ramulator_0 channel 1 0 reqs
CXL_0_ramulator_0 channel 2 0 reqs
CXL_0_ramulator_0 channel 3 0 reqs
CXL_0_ramulator_0 channel 4 0 reqs
CXL_0_ramulator_0 channel 5 0 reqs
CXL_0_ramulator_0 channel 6 0 reqs
CXL_0_ramulator_0 channel 7 0 reqs
LINK_UTIL GPU: 0Port: 0 From GPU to CXL: 0 %  From CXL to GPU: 0 %
FINISHED?
size 0
GPU_ramulator_0 memory channel 0 Overall mem bandwidth utilization 0.62 %
GPU_ramulator_1 memory channel 0 Overall mem bandwidth utilization 0.63 %
GPU_ramulator_2 memory channel 0 Overall mem bandwidth utilization 0.62 %
GPU_ramulator_3 memory channel 0 Overall mem bandwidth utilization 0.63 %
GPU_ramulator_4 memory channel 0 Overall mem bandwidth utilization 0.63 %
GPU_ramulator_5 memory channel 0 Overall mem bandwidth utilization 0.63 %
GPU_ramulator_6 memory channel 0 Overall mem bandwidth utilization 0.63 %
GPU_ramulator_7 memory channel 0 Overall mem bandwidth utilization 0.63 %
Gantt info: gpu 0 finished gpu kernel turing_fp16_s1688gemm_fp16_128x128_ldg8_f2f_nn at cycle 3988539
exit 1 gpu Num << 0
GPU_ramulator_0 memory channel 0 Overall mem bandwidth utilization 0.62 %
GPU_ramulator_1 memory channel 0 Overall mem bandwidth utilization 0.63 %
GPU_ramulator_2 memory channel 0 Overall mem bandwidth utilization 0.62 %
GPU_ramulator_3 memory channel 0 Overall mem bandwidth utilization 0.63 %
GPU_ramulator_4 memory channel 0 Overall mem bandwidth utilization 0.63 %
GPU_ramulator_5 memory channel 0 Overall mem bandwidth utilization 0.63 %
GPU_ramulator_6 memory channel 0 Overall mem bandwidth utilization 0.63 %
GPU_ramulator_7 memory channel 0 Overall mem bandwidth utilization 0.63 %
GPU FINISHED - 0
CXL_0_ramulator_0 memory channel 0 Overall mem bandwidth utilization 0.02 %
CXL_0_ramulator_0 memory channel 1 Overall mem bandwidth utilization 0.02 %
CXL_0_ramulator_0 memory channel 2 Overall mem bandwidth utilization 0.02 %
CXL_0_ramulator_0 memory channel 3 Overall mem bandwidth utilization 0.02 %
CXL_0_ramulator_0 memory channel 4 Overall mem bandwidth utilization 0.02 %
CXL_0_ramulator_0 memory channel 5 Overall mem bandwidth utilization 0.02 %
CXL_0_ramulator_0 memory channel 6 Overall mem bandwidth utilization 0.02 %
CXL_0_ramulator_0 memory channel 7 Overall mem bandwidth utilization 0.02 %
CXL BUFFER FINISHED 
Print all
GPGPU-Sim:  *** simulation thread exiting ***
GPGPU-Sim: *** exit detected ***
Spent 5298 second for simulation