

        *** GPGPU-Sim Simulator Version 4.0.0  [build gpgpu-sim_git-commit-005a04d4a9b57b681d8229013eb40e9b3ff66405_modified_0.0] ***


DRAM Timing Options:
nbk                                    16 # number of banks
CCD                                     1 # column to column delay
RRD                                     3 # minimal delay between activation of rows in different banks
RCD                                    12 # row to column delay
RAS                                    28 # time needed to activate row
RP                                     12 # time needed to precharge (deactivate) row
RC                                     40 # row cycle time
CDLR                                    3 # switching from write to read (changes tWTR)
WR                                     10 # last data-in to row precharge
CL                                     12 # CAS latency
WL                                      2 # Write latency
nbkgrp                                  4 # number of bank groups
CCDL                                    2 # column to column delay between accesses to different bank groups
RTPL                                    3 # read to precharge delay between accesses to different bank groups
Total number of memory sub partition = 16
addr_dec_mask[CHIP]  = 0000000000000700 	high:11 low:8
addr_dec_mask[BK]    = 0000000000038800 	high:18 low:11
addr_dec_mask[ROW]   = 000000007ffc0000 	high:31 low:18
addr_dec_mask[COL]   = 00000000000070ff 	high:15 low:0
addr_dec_mask[BURST] = 000000000000001f 	high:5 low:0
addr_dec_mask[GPU_DEVICE]  = ff00000000000000 	high:64 low:56
sub_partition_id_mask = 0000000000000800
Link latency: 2
Link latency: 2
GPGPU-Sim uArch: interconnect node map (shaderID+MemID to icntID)
GPGPU-Sim uArch: Memory nodes ID start from index: 1
GPGPU-Sim uArch:    0
GPGPU-Sim uArch:    1
GPGPU-Sim uArch: interconnect node reverse map (icntID to shaderID+MemID)
GPGPU-Sim uArch: Memory nodes start from ID: 1
GPGPU-Sim uArch:    0
GPGPU-Sim uArch:    1
*** Initializing Memory Statistics ***
GPGPU-Sim uses Ramulator memory model
SECTOR_SIZE 32
Ramulator instance name: GPU_ramulator_0
Memory instance will be instantiated
File name: ./output/ramulator.stats
GPGPU-Sim uses Ramulator memory model
SECTOR_SIZE 32
Ramulator instance name: GPU_ramulator_1
Memory instance will be instantiated
GPGPU-Sim uses Ramulator memory model
SECTOR_SIZE 32
Ramulator instance name: GPU_ramulator_2
Memory instance will be instantiated
GPGPU-Sim uses Ramulator memory model
SECTOR_SIZE 32
Ramulator instance name: GPU_ramulator_3
Memory instance will be instantiated
GPGPU-Sim uses Ramulator memory model
SECTOR_SIZE 32
Ramulator instance name: GPU_ramulator_4
Memory instance will be instantiated
GPGPU-Sim uses Ramulator memory model
SECTOR_SIZE 32
Ramulator instance name: GPU_ramulator_5
Memory instance will be instantiated
GPGPU-Sim uses Ramulator memory model
SECTOR_SIZE 32
Ramulator instance name: GPU_ramulator_6
Memory instance will be instantiated
GPGPU-Sim uses Ramulator memory model
SECTOR_SIZE 32
Ramulator instance name: GPU_ramulator_7
Memory instance will be instantiated
Link latency: 2
Link latency: 2
GPGPU-Sim uArch: interconnect node map (shaderID+MemID to icntID)
GPGPU-Sim uArch: Memory nodes ID start from index: 20
GPGPU-Sim uArch:    0   1   2   3   4   5   6
GPGPU-Sim uArch:    7   8   9  10  11  12  13
GPGPU-Sim uArch:   14  15  16  17  18  19  20
GPGPU-Sim uArch:   21  22  23  24  25  26  27
GPGPU-Sim uArch:   28  29  30  31  32  33  34
GPGPU-Sim uArch:   35  36  37  38  39  40  41
GPGPU-Sim uArch:   42  43  44  45  46  47  48
GPGPU-Sim uArch:   49  50  51  52  53  54  55
GPGPU-Sim uArch: interconnect node reverse map (icntID to shaderID+MemID)
GPGPU-Sim uArch: Memory nodes start from ID: 20
GPGPU-Sim uArch:    0   1   2   3   4   5   6
GPGPU-Sim uArch:    7   8   9  10  11  12  13
GPGPU-Sim uArch:   14  15  16  17  18  19  20
GPGPU-Sim uArch:   21  22  23  24  25  26  27
GPGPU-Sim uArch:   28  29  30  31  32  33  34
GPGPU-Sim uArch:   35  36  37  38  39  40  41
GPGPU-Sim uArch:   42  43  44  45  46  47  48
GPGPU-Sim uArch:   49  50  51  52  53  54  55
Simulation started at 2021-11-20, 6:38



CONFIG /home/jueonpark/cxl-simulator/sim_configs/GPU_1_Buffer_1/V100_downscaled_HBM2_PCI6x1/./memory_buffer_crossbar.icntLink latency: 2
Link latency: 2
GPGPU-Sim uArch: interconnect node map (shaderID+MemID to icntID)
GPGPU-Sim uArch: Memory nodes ID start from index: 1
GPGPU-Sim uArch:    0   1   2   3
GPGPU-Sim uArch:    4   5   6   7
GPGPU-Sim uArch:    8   9  10  11
GPGPU-Sim uArch:   12  13  14  15
GPGPU-Sim uArch:   16
GPGPU-Sim uArch: interconnect node reverse map (icntID to shaderID+MemID)
GPGPU-Sim uArch: Memory nodes start from ID: 1
GPGPU-Sim uArch:    0   1   2   3
GPGPU-Sim uArch:    4   5   6   7
GPGPU-Sim uArch:    8   9  10  11
GPGPU-Sim uArch:   12  13  14  15
GPGPU-Sim uArch:   16
SECTOR_SIZE 32
Ramulator instance name: CXL_0_ramulator_0
Memory instance will be instantiated
NDP kernel launch 0 ./traces/kernel-8156/GPU_0/_ON_THE_FLY_custom-call.74_fw_bert_output_ph1.traceg 1
[cxl_memory_buffer 0]	GPU 0 launnched NDP kernel ID 3473 :  _NDP_fw_bert_output_ph1
Gantt info: gpu 0 launched NDP kernel  _NDP_fw_bert_output_ph1 at cycle 0 to CXL 0
NDP function launched to 0
function launched to 0
[simd_unit 0]	SIMD0 SET_FILTER 1007fb0660cba00, c00000, [16,512,768,]ID: 0Total 3072

[simd_unit 0]	SIMD0 SET_FILTER 1007fb0660cba00, c00000, [16,512,768,]ID: 1Total 3072

[simd_unit 0]	SIMD0 SET_FILTER 1007fb0660cba00, c00000, [16,512,768,]ID: 2Total 3072

[simd_unit 0]	SIMD0 SET_FILTER 1007fb0660cba00, c00000, [16,512,768,]ID: 3Total 3072

[simd_unit 0]	SIMD0 SET_FILTER 1007fb0660cba00, c00000, [16,512,768,]ID: 4Total 3072

[simd_unit 0]	SIMD0 SET_FILTER 1007fb0660cba00, c00000, [16,512,768,]ID: 5Total 3072

[simd_unit 0]	SIMD0 SET_FILTER 1007fb0660cba00, c00000, [16,512,768,]ID: 6Total 3072

[simd_unit 0]	SIMD0 SET_FILTER 1007fb0660cba00, c00000, [16,512,768,]ID: 7Total 3072

[simd_unit 0]	SIMD0 SET_FILTER 1007fb0660cba00, c00000, [16,512,768,]ID: 8Total 3072

[simd_unit 0]	SIMD0 SET_FILTER 1007fb0660cba00, c00000, [16,512,768,]ID: 9Total 3072

[simd_unit 0]	SIMD0 SET_FILTER 1007fb0660cba00, c00000, [16,512,768,]ID: 10Total 3072

[simd_unit 0]	SIMD0 SET_FILTER 1007fb0660cba00, c00000, [16,512,768,]ID: 11Total 3072

[simd_unit 0]	SIMD0 SET_FILTER 1007fb0660cba00, c00000, [16,512,768,]ID: 12Total 3072

[simd_unit 0]	SIMD0 SET_FILTER 1007fb0660cba00, c00000, [16,512,768,]ID: 13Total 3072

[simd_unit 0]	SIMD0 SET_FILTER 1007fb0660cba00, c00000, [16,512,768,]ID: 14Total 3072

[simd_unit 0]	SIMD0 SET_FILTER 1007fb0660cba00, c00000, [16,512,768,]ID: 15Total 3072

NDP function launched to 0
[simd_unit 1]	SIMD1 SET_FILTER 1007fb0660cba00, c00000, [16,512,768,]ID: 0Total 3072

[simd_unit 1]	SIMD1 SET_FILTER 1007fb0660cba00, c00000, [16,512,768,]ID: 1Total 3072

[simd_unit 1]	SIMD1 SET_FILTER 1007fb0660cba00, c00000, [16,512,768,]ID: 2Total 3072

[simd_unit 1]	SIMD1 SET_FILTER 1007fb0660cba00, c00000, [16,512,768,]ID: 3Total 3072

[simd_unit 1]	SIMD1 SET_FILTER 1007fb0660cba00, c00000, [16,512,768,]ID: 4Total 3072

[simd_unit 1]	SIMD1 SET_FILTER 1007fb0660cba00, c00000, [16,512,768,]ID: 5Total 3072

[simd_unit 1]	SIMD1 SET_FILTER 1007fb0660cba00, c00000, [16,512,768,]ID: 6Total 3072

[simd_unit 1]	SIMD1 SET_FILTER 1007fb0660cba00, c00000, [16,512,768,]ID: 7Total 3072

[simd_unit 1]	SIMD1 SET_FILTER 1007fb0660cba00, c00000, [16,512,768,]ID: 8Total 3072

[simd_unit 1]	SIMD1 SET_FILTER 1007fb0660cba00, c00000, [16,512,768,]ID: 9Total 3072

[simd_unit 1]	SIMD1 SET_FILTER 1007fb0660cba00, c00000, [16,512,768,]ID: 10Total 3072

[simd_unit 1]	SIMD1 SET_FILTER 1007fb0660cba00, c00000, [16,512,768,]ID: 11Total 3072

[simd_unit 1]	SIMD1 SET_FILTER 1007fb0660cba00, c00000, [16,512,768,]ID: 12Total 3072

[simd_unit 1]	SIMD1 SET_FILTER 1007fb0660cba00, c00000, [16,512,768,]ID: 13Total 3072

[simd_unit 1]	SIMD1 SET_FILTER 1007fb0660cba00, c00000, [16,512,768,]ID: 14Total 3072

[simd_unit 1]	SIMD1 SET_FILTER 1007fb0660cba00, c00000, [16,512,768,]ID: 15Total 3072

NDP function launched to 0
[simd_unit 2]	SIMD2 SET_FILTER 1007fb0660cba00, c00000, [16,512,768,]ID: 0Total 3072

[simd_unit 2]	SIMD2 SET_FILTER 1007fb0660cba00, c00000, [16,512,768,]ID: 1Total 3072

[simd_unit 2]	SIMD2 SET_FILTER 1007fb0660cba00, c00000, [16,512,768,]ID: 2Total 3072

[simd_unit 2]	SIMD2 SET_FILTER 1007fb0660cba00, c00000, [16,512,768,]ID: 3Total 3072

[simd_unit 2]	SIMD2 SET_FILTER 1007fb0660cba00, c00000, [16,512,768,]ID: 4Total 3072

[simd_unit 2]	SIMD2 SET_FILTER 1007fb0660cba00, c00000, [16,512,768,]ID: 5Total 3072

[simd_unit 2]	SIMD2 SET_FILTER 1007fb0660cba00, c00000, [16,512,768,]ID: 6Total 3072

[simd_unit 2]	SIMD2 SET_FILTER 1007fb0660cba00, c00000, [16,512,768,]ID: 7Total 3072

[simd_unit 2]	SIMD2 SET_FILTER 1007fb0660cba00, c00000, [16,512,768,]ID: 8Total 3072

[simd_unit 2]	SIMD2 SET_FILTER 1007fb0660cba00, c00000, [16,512,768,]ID: 9Total 3072

[simd_unit 2]	SIMD2 SET_FILTER 1007fb0660cba00, c00000, [16,512,768,]ID: 10Total 3072

[simd_unit 2]	SIMD2 SET_FILTER 1007fb0660cba00, c00000, [16,512,768,]ID: 11Total 3072

[simd_unit 2]	SIMD2 SET_FILTER 1007fb0660cba00, c00000, [16,512,768,]ID: 12Total 3072

[simd_unit 2]	SIMD2 SET_FILTER 1007fb0660cba00, c00000, [16,512,768,]ID: 13Total 3072

[simd_unit 2]	SIMD2 SET_FILTER 1007fb0660cba00, c00000, [16,512,768,]ID: 14Total 3072

[simd_unit 2]	SIMD2 SET_FILTER 1007fb0660cba00, c00000, [16,512,768,]ID: 15Total 3072

NDP function launched to 0
[simd_unit 3]	SIMD3 SET_FILTER 1007fb0660cba00, c00000, [16,512,768,]ID: 0Total 3072

[simd_unit 3]	SIMD3 SET_FILTER 1007fb0660cba00, c00000, [16,512,768,]ID: 1Total 3072

[simd_unit 3]	SIMD3 SET_FILTER 1007fb0660cba00, c00000, [16,512,768,]ID: 2Total 3072

[simd_unit 3]	SIMD3 SET_FILTER 1007fb0660cba00, c00000, [16,512,768,]ID: 3Total 3072

[simd_unit 3]	SIMD3 SET_FILTER 1007fb0660cba00, c00000, [16,512,768,]ID: 4Total 3072

[simd_unit 3]	SIMD3 SET_FILTER 1007fb0660cba00, c00000, [16,512,768,]ID: 5Total 3072

[simd_unit 3]	SIMD3 SET_FILTER 1007fb0660cba00, c00000, [16,512,768,]ID: 6Total 3072

[simd_unit 3]	SIMD3 SET_FILTER 1007fb0660cba00, c00000, [16,512,768,]ID: 7Total 3072

[simd_unit 3]	SIMD3 SET_FILTER 1007fb0660cba00, c00000, [16,512,768,]ID: 8Total 3072

[simd_unit 3]	SIMD3 SET_FILTER 1007fb0660cba00, c00000, [16,512,768,]ID: 9Total 3072

[simd_unit 3]	SIMD3 SET_FILTER 1007fb0660cba00, c00000, [16,512,768,]ID: 10Total 3072

[simd_unit 3]	SIMD3 SET_FILTER 1007fb0660cba00, c00000, [16,512,768,]ID: 11Total 3072

[simd_unit 3]	SIMD3 SET_FILTER 1007fb0660cba00, c00000, [16,512,768,]ID: 12Total 3072

[simd_unit 3]	SIMD3 SET_FILTER 1007fb0660cba00, c00000, [16,512,768,]ID: 13Total 3072

[simd_unit 3]	SIMD3 SET_FILTER 1007fb0660cba00, c00000, [16,512,768,]ID: 14Total 3072

[simd_unit 3]	SIMD3 SET_FILTER 1007fb0660cba00, c00000, [16,512,768,]ID: 15Total 3072

NDP function launched to 0
[simd_unit 4]	SIMD4 SET_FILTER 1007fb0660cba00, c00000, [16,512,768,]ID: 0Total 3072

[simd_unit 4]	SIMD4 SET_FILTER 1007fb0660cba00, c00000, [16,512,768,]ID: 1Total 3072

[simd_unit 4]	SIMD4 SET_FILTER 1007fb0660cba00, c00000, [16,512,768,]ID: 2Total 3072

[simd_unit 4]	SIMD4 SET_FILTER 1007fb0660cba00, c00000, [16,512,768,]ID: 3Total 3072

[simd_unit 4]	SIMD4 SET_FILTER 1007fb0660cba00, c00000, [16,512,768,]ID: 4Total 3072

[simd_unit 4]	SIMD4 SET_FILTER 1007fb0660cba00, c00000, [16,512,768,]ID: 5Total 3072

[simd_unit 4]	SIMD4 SET_FILTER 1007fb0660cba00, c00000, [16,512,768,]ID: 6Total 3072

[simd_unit 4]	SIMD4 SET_FILTER 1007fb0660cba00, c00000, [16,512,768,]ID: 7Total 3072

[simd_unit 4]	SIMD4 SET_FILTER 1007fb0660cba00, c00000, [16,512,768,]ID: 8Total 3072

[simd_unit 4]	SIMD4 SET_FILTER 1007fb0660cba00, c00000, [16,512,768,]ID: 9Total 3072

[simd_unit 4]	SIMD4 SET_FILTER 1007fb0660cba00, c00000, [16,512,768,]ID: 10Total 3072

[simd_unit 4]	SIMD4 SET_FILTER 1007fb0660cba00, c00000, [16,512,768,]ID: 11Total 3072

[simd_unit 4]	SIMD4 SET_FILTER 1007fb0660cba00, c00000, [16,512,768,]ID: 12Total 3072

[simd_unit 4]	SIMD4 SET_FILTER 1007fb0660cba00, c00000, [16,512,768,]ID: 13Total 3072

[simd_unit 4]	SIMD4 SET_FILTER 1007fb0660cba00, c00000, [16,512,768,]ID: 14Total 3072

[simd_unit 4]	SIMD4 SET_FILTER 1007fb0660cba00, c00000, [16,512,768,]ID: 15Total 3072

NDP function launched to 0
[simd_unit 5]	SIMD5 SET_FILTER 1007fb0660cba00, c00000, [16,512,768,]ID: 0Total 3072

[simd_unit 5]	SIMD5 SET_FILTER 1007fb0660cba00, c00000, [16,512,768,]ID: 1Total 3072

[simd_unit 5]	SIMD5 SET_FILTER 1007fb0660cba00, c00000, [16,512,768,]ID: 2Total 3072

[simd_unit 5]	SIMD5 SET_FILTER 1007fb0660cba00, c00000, [16,512,768,]ID: 3Total 3072

[simd_unit 5]	SIMD5 SET_FILTER 1007fb0660cba00, c00000, [16,512,768,]ID: 4Total 3072

[simd_unit 5]	SIMD5 SET_FILTER 1007fb0660cba00, c00000, [16,512,768,]ID: 5Total 3072

[simd_unit 5]	SIMD5 SET_FILTER 1007fb0660cba00, c00000, [16,512,768,]ID: 6Total 3072

[simd_unit 5]	SIMD5 SET_FILTER 1007fb0660cba00, c00000, [16,512,768,]ID: 7Total 3072

[simd_unit 5]	SIMD5 SET_FILTER 1007fb0660cba00, c00000, [16,512,768,]ID: 8Total 3072

[simd_unit 5]	SIMD5 SET_FILTER 1007fb0660cba00, c00000, [16,512,768,]ID: 9Total 3072

[simd_unit 5]	SIMD5 SET_FILTER 1007fb0660cba00, c00000, [16,512,768,]ID: 10Total 3072

[simd_unit 5]	SIMD5 SET_FILTER 1007fb0660cba00, c00000, [16,512,768,]ID: 11Total 3072

[simd_unit 5]	SIMD5 SET_FILTER 1007fb0660cba00, c00000, [16,512,768,]ID: 12Total 3072

[simd_unit 5]	SIMD5 SET_FILTER 1007fb0660cba00, c00000, [16,512,768,]ID: 13Total 3072

[simd_unit 5]	SIMD5 SET_FILTER 1007fb0660cba00, c00000, [16,512,768,]ID: 14Total 3072

[simd_unit 5]	SIMD5 SET_FILTER 1007fb0660cba00, c00000, [16,512,768,]ID: 15Total 3072

NDP function launched to 0
[simd_unit 6]	SIMD6 SET_FILTER 1007fb0660cba00, c00000, [16,512,768,]ID: 0Total 3072

[simd_unit 6]	SIMD6 SET_FILTER 1007fb0660cba00, c00000, [16,512,768,]ID: 1Total 3072

[simd_unit 6]	SIMD6 SET_FILTER 1007fb0660cba00, c00000, [16,512,768,]ID: 2Total 3072

[simd_unit 6]	SIMD6 SET_FILTER 1007fb0660cba00, c00000, [16,512,768,]ID: 3Total 3072

[simd_unit 6]	SIMD6 SET_FILTER 1007fb0660cba00, c00000, [16,512,768,]ID: 4Total 3072

[simd_unit 6]	SIMD6 SET_FILTER 1007fb0660cba00, c00000, [16,512,768,]ID: 5Total 3072

[simd_unit 6]	SIMD6 SET_FILTER 1007fb0660cba00, c00000, [16,512,768,]ID: 6Total 3072

[simd_unit 6]	SIMD6 SET_FILTER 1007fb0660cba00, c00000, [16,512,768,]ID: 7Total 3072

[simd_unit 6]	SIMD6 SET_FILTER 1007fb0660cba00, c00000, [16,512,768,]ID: 8Total 3072

[simd_unit 6]	SIMD6 SET_FILTER 1007fb0660cba00, c00000, [16,512,768,]ID: 9Total 3072

[simd_unit 6]	SIMD6 SET_FILTER 1007fb0660cba00, c00000, [16,512,768,]ID: 10Total 3072

[simd_unit 6]	SIMD6 SET_FILTER 1007fb0660cba00, c00000, [16,512,768,]ID: 11Total 3072

[simd_unit 6]	SIMD6 SET_FILTER 1007fb0660cba00, c00000, [16,512,768,]ID: 12Total 3072

[simd_unit 6]	SIMD6 SET_FILTER 1007fb0660cba00, c00000, [16,512,768,]ID: 13Total 3072

[simd_unit 6]	SIMD6 SET_FILTER 1007fb0660cba00, c00000, [16,512,768,]ID: 14Total 3072

[simd_unit 6]	SIMD6 SET_FILTER 1007fb0660cba00, c00000, [16,512,768,]ID: 15Total 3072

NDP function launched to 0
[simd_unit 7]	SIMD7 SET_FILTER 1007fb0660cba00, c00000, [16,512,768,]ID: 0Total 3072

[simd_unit 7]	SIMD7 SET_FILTER 1007fb0660cba00, c00000, [16,512,768,]ID: 1Total 3072

[simd_unit 7]	SIMD7 SET_FILTER 1007fb0660cba00, c00000, [16,512,768,]ID: 2Total 3072

[simd_unit 7]	SIMD7 SET_FILTER 1007fb0660cba00, c00000, [16,512,768,]ID: 3Total 3072

[simd_unit 7]	SIMD7 SET_FILTER 1007fb0660cba00, c00000, [16,512,768,]ID: 4Total 3072

[simd_unit 7]	SIMD7 SET_FILTER 1007fb0660cba00, c00000, [16,512,768,]ID: 5Total 3072

[simd_unit 7]	SIMD7 SET_FILTER 1007fb0660cba00, c00000, [16,512,768,]ID: 6Total 3072

[simd_unit 7]	SIMD7 SET_FILTER 1007fb0660cba00, c00000, [16,512,768,]ID: 7Total 3072

[simd_unit 7]	SIMD7 SET_FILTER 1007fb0660cba00, c00000, [16,512,768,]ID: 8Total 3072

[simd_unit 7]	SIMD7 SET_FILTER 1007fb0660cba00, c00000, [16,512,768,]ID: 9Total 3072

[simd_unit 7]	SIMD7 SET_FILTER 1007fb0660cba00, c00000, [16,512,768,]ID: 10Total 3072

[simd_unit 7]	SIMD7 SET_FILTER 1007fb0660cba00, c00000, [16,512,768,]ID: 11Total 3072

[simd_unit 7]	SIMD7 SET_FILTER 1007fb0660cba00, c00000, [16,512,768,]ID: 12Total 3072

[simd_unit 7]	SIMD7 SET_FILTER 1007fb0660cba00, c00000, [16,512,768,]ID: 13Total 3072

[simd_unit 7]	SIMD7 SET_FILTER 1007fb0660cba00, c00000, [16,512,768,]ID: 14Total 3072

[simd_unit 7]	SIMD7 SET_FILTER 1007fb0660cba00, c00000, [16,512,768,]ID: 15Total 3072

Processing kernel ./traces/kernel-8156/GPU_0/kernel-8156.traceg
-kernel name = turing_fp16_s1688gemm_fp16_128x128_ldg8_f2f_nn
-kernel id = 8156
-grid dim = (6,64,1)
-block dim = (128,1,1)
-shmem = 32768
-nregs = 246
-binary version = 75
-cuda stream id = 1731040
-shmem base_addr = 0x00007fb3e6000000
-local mem base_addr = 0x00007fb3e4000000
-nvbit version = 1.5.3
-accelsim tracer version = 3
Gantt info: gpu 0 launched gpu kernel turing_fp16_s1688gemm_fp16_128x128_ldg8_f2f_nn at cycle 0
LINK_UTIL GPU: 0Port: 0 From GPU to CXL: 0 %  From CXL to GPU: 0 %
LINK_UTIL GPU: 0Port: 0 From GPU to CXL: 0 %  From CXL to GPU: 0 %
LINK_UTIL GPU: 0Port: 0 From GPU to CXL: 0 %  From CXL to GPU: 0 %
LINK_UTIL GPU: 0Port: 0 From GPU to CXL: 0 %  From CXL to GPU: 0 %
LINK_UTIL GPU: 0Port: 0 From GPU to CXL: 0 %  From CXL to GPU: 0 %
LINK_UTIL GPU: 0Port: 0 From GPU to CXL: 0 %  From CXL to GPU: 0 %
GPGPU-Sim uArch: GPU 0 Shader 0 bind to kernel 1 'turing_fp16_s1688gemm_fp16_128x128_ldg8_f2f_nn'
GPGPU-Sim: Reconfigure L1 cache to 64KB
GPU 0 thread block = 0,0,0
GPGPU-Sim uArch: GPU 0 Shader 1 bind to kernel 1 'turing_fp16_s1688gemm_fp16_128x128_ldg8_f2f_nn'
GPU 0 thread block = 1,0,0
GPGPU-Sim uArch: GPU 0 Shader 2 bind to kernel 1 'turing_fp16_s1688gemm_fp16_128x128_ldg8_f2f_nn'
GPU 0 thread block = 2,0,0
GPGPU-Sim uArch: GPU 0 Shader 3 bind to kernel 1 'turing_fp16_s1688gemm_fp16_128x128_ldg8_f2f_nn'
GPU 0 thread block = 3,0,0
GPGPU-Sim uArch: GPU 0 Shader 4 bind to kernel 1 'turing_fp16_s1688gemm_fp16_128x128_ldg8_f2f_nn'
GPU 0 thread block = 4,0,0
GPGPU-Sim uArch: GPU 0 Shader 5 bind to kernel 1 'turing_fp16_s1688gemm_fp16_128x128_ldg8_f2f_nn'
GPU 0 thread block = 5,0,0
GPGPU-Sim uArch: GPU 0 Shader 6 bind to kernel 1 'turing_fp16_s1688gemm_fp16_128x128_ldg8_f2f_nn'
GPU 0 thread block = 0,1,0
GPGPU-Sim uArch: GPU 0 Shader 7 bind to kernel 1 'turing_fp16_s1688gemm_fp16_128x128_ldg8_f2f_nn'
GPU 0 thread block = 1,1,0
GPGPU-Sim uArch: GPU 0 Shader 8 bind to kernel 1 'turing_fp16_s1688gemm_fp16_128x128_ldg8_f2f_nn'
GPU 0 thread block = 2,1,0
GPGPU-Sim uArch: GPU 0 Shader 9 bind to kernel 1 'turing_fp16_s1688gemm_fp16_128x128_ldg8_f2f_nn'
GPU 0 thread block = 3,1,0
GPGPU-Sim uArch: GPU 0 Shader 10 bind to kernel 1 'turing_fp16_s1688gemm_fp16_128x128_ldg8_f2f_nn'
GPU 0 thread block = 4,1,0
GPGPU-Sim uArch: GPU 0 Shader 11 bind to kernel 1 'turing_fp16_s1688gemm_fp16_128x128_ldg8_f2f_nn'
GPU 0 thread block = 5,1,0
GPGPU-Sim uArch: GPU 0 Shader 12 bind to kernel 1 'turing_fp16_s1688gemm_fp16_128x128_ldg8_f2f_nn'
GPU 0 thread block = 0,2,0
GPGPU-Sim uArch: GPU 0 Shader 13 bind to kernel 1 'turing_fp16_s1688gemm_fp16_128x128_ldg8_f2f_nn'
GPU 0 thread block = 1,2,0
GPGPU-Sim uArch: GPU 0 Shader 14 bind to kernel 1 'turing_fp16_s1688gemm_fp16_128x128_ldg8_f2f_nn'
GPU 0 thread block = 2,2,0
GPGPU-Sim uArch: GPU 0 Shader 15 bind to kernel 1 'turing_fp16_s1688gemm_fp16_128x128_ldg8_f2f_nn'
GPU 0 thread block = 3,2,0
GPGPU-Sim uArch: GPU 0 Shader 16 bind to kernel 1 'turing_fp16_s1688gemm_fp16_128x128_ldg8_f2f_nn'
GPU 0 thread block = 4,2,0
GPGPU-Sim uArch: GPU 0 Shader 17 bind to kernel 1 'turing_fp16_s1688gemm_fp16_128x128_ldg8_f2f_nn'
GPU 0 thread block = 5,2,0
GPGPU-Sim uArch: GPU 0 Shader 18 bind to kernel 1 'turing_fp16_s1688gemm_fp16_128x128_ldg8_f2f_nn'
GPU 0 thread block = 0,3,0
GPGPU-Sim uArch: GPU 0 Shader 19 bind to kernel 1 'turing_fp16_s1688gemm_fp16_128x128_ldg8_f2f_nn'
GPU 0 thread block = 1,3,0
GPU 0 thread block = 2,3,0
GPU 0 thread block = 3,3,0
GPU 0 thread block = 4,3,0
GPU 0 thread block = 5,3,0
GPU 0 thread block = 0,4,0
GPU 0 thread block = 1,4,0
GPU 0 thread block = 2,4,0
GPU 0 thread block = 3,4,0
GPU 0 thread block = 4,4,0
GPU 0 thread block = 5,4,0
GPU 0 thread block = 0,5,0
GPU 0 thread block = 1,5,0
GPU 0 thread block = 2,5,0
GPU 0 thread block = 3,5,0
GPU 0 thread block = 4,5,0
GPU 0 thread block = 5,5,0
GPU 0 thread block = 0,6,0
GPU 0 thread block = 1,6,0
GPU 0 thread block = 2,6,0
GPU 0 thread block = 3,6,0
LINK_UTIL GPU: 0Port: 0 From GPU to CXL: 0 %  From CXL to GPU: 0 %
LINK_UTIL GPU: 0Port: 0 From GPU to CXL: 0 %  From CXL to GPU: 0 %
LINK_UTIL GPU: 0Port: 0 From GPU to CXL: 0 %  From CXL to GPU: 0 %
LINK_UTIL GPU: 0Port: 0 From GPU to CXL: 0 %  From CXL to GPU: 0 %
LINK_UTIL GPU: 0Port: 0 From GPU to CXL: 0 %  From CXL to GPU: 0 %
LINK_UTIL GPU: 0Port: 0 From GPU to CXL: 0 %  From CXL to GPU: 0 %
LINK_UTIL GPU: 0Port: 0 From GPU to CXL: 0 %  From CXL to GPU: 0 %
LINK_UTIL GPU: 0Port: 0 From GPU to CXL: 0 %  From CXL to GPU: 0 %
LINK_UTIL GPU: 0Port: 0 From GPU to CXL: 0 %  From CXL to GPU: 0 %
LINK_UTIL GPU: 0Port: 0 From GPU to CXL: 0 %  From CXL to GPU: 0 %
CXL_0_ramulator_0 channel 0 0 reqs
CXL_0_ramulator_0 channel 1 0 reqs
CXL_0_ramulator_0 channel 2 0 reqs
CXL_0_ramulator_0 channel 3 0 reqs
CXL_0_ramulator_0 channel 4 0 reqs
CXL_0_ramulator_0 channel 5 0 reqs
CXL_0_ramulator_0 channel 6 0 reqs
CXL_0_ramulator_0 channel 7 0 reqs
LINK_UTIL GPU: 0Port: 0 From GPU to CXL: 0 %  From CXL to GPU: 0 %
LINK_UTIL GPU: 0Port: 0 From GPU to CXL: 0 %  From CXL to GPU: 0 %
LINK_UTIL GPU: 0Port: 0 From GPU to CXL: 0 %  From CXL to GPU: 0 %
LINK_UTIL GPU: 0Port: 0 From GPU to CXL: 0 %  From CXL to GPU: 0 %
GPU_ramulator_0 channel 0 2212 reqs
GPU_ramulator_1 channel 0 2132 reqs
GPU_ramulator_2 channel 0 2115 reqs
GPU_ramulator_3 channel 0 2150 reqs
GPU_ramulator_4 channel 0 2210 reqs
GPU_ramulator_5 channel 0 2114 reqs
GPU_ramulator_6 channel 0 2136 reqs
GPU_ramulator_7 channel 0 2150 reqs
LINK_UTIL GPU: 0Port: 0 From GPU to CXL: 0 %  From CXL to GPU: 0 %
LINK_UTIL GPU: 0Port: 0 From GPU to CXL: 0 %  From CXL to GPU: 0 %
LINK_UTIL GPU: 0Port: 0 From GPU to CXL: 0 %  From CXL to GPU: 0 %
LINK_UTIL GPU: 0Port: 0 From GPU to CXL: 0 %  From CXL to GPU: 0 %
LINK_UTIL GPU: 0Port: 0 From GPU to CXL: 0 %  From CXL to GPU: 0 %
LINK_UTIL GPU: 0Port: 0 From GPU to CXL: 0 %  From CXL to GPU: 0 %
LINK_UTIL GPU: 0Port: 0 From GPU to CXL: 0 %  From CXL to GPU: 0 %
LINK_UTIL GPU: 0Port: 0 From GPU to CXL: 0 %  From CXL to GPU: 0 %
LINK_UTIL GPU: 0Port: 0 From GPU to CXL: 0 %  From CXL to GPU: 0 %
LINK_UTIL GPU: 0Port: 0 From GPU to CXL: 0 %  From CXL to GPU: 0 %
LINK_UTIL GPU: 0Port: 0 From GPU to CXL: 0 %  From CXL to GPU: 0 %
LINK_UTIL GPU: 0Port: 0 From GPU to CXL: 0 %  From CXL to GPU: 0 %
CXL_0_ramulator_0 channel 0 0 reqs
CXL_0_ramulator_0 channel 1 0 reqs
CXL_0_ramulator_0 channel 2 0 reqs
CXL_0_ramulator_0 channel 3 0 reqs
CXL_0_ramulator_0 channel 4 0 reqs
CXL_0_ramulator_0 channel 5 0 reqs
CXL_0_ramulator_0 channel 6 0 reqs
CXL_0_ramulator_0 channel 7 0 reqs
LINK_UTIL GPU: 0Port: 0 From GPU to CXL: 0 %  From CXL to GPU: 0 %
LINK_UTIL GPU: 0Port: 0 From GPU to CXL: 0 %  From CXL to GPU: 0 %
LINK_UTIL GPU: 0Port: 0 From GPU to CXL: 0 %  From CXL to GPU: 0 %
LINK_UTIL GPU: 0Port: 0 From GPU to CXL: 0 %  From CXL to GPU: 0 %
LINK_UTIL GPU: 0Port: 0 From GPU to CXL: 0 %  From CXL to GPU: 0 %
LINK_UTIL GPU: 0Port: 0 From GPU to CXL: 0 %  From CXL to GPU: 0 %
LINK_UTIL GPU: 0Port: 0 From GPU to CXL: 0 %  From CXL to GPU: 0 %
LINK_UTIL GPU: 0Port: 0 From GPU to CXL: 0 %  From CXL to GPU: 0 %
GPU_ramulator_0 channel 0 3397 reqs
GPU_ramulator_1 channel 0 3351 reqs
GPU_ramulator_2 channel 0 3426 reqs
GPU_ramulator_3 channel 0 3455 reqs
GPU_ramulator_4 channel 0 3385 reqs
GPU_ramulator_5 channel 0 3368 reqs
GPU_ramulator_6 channel 0 3367 reqs
GPU_ramulator_7 channel 0 3400 reqs
LINK_UTIL GPU: 0Port: 0 From GPU to CXL: 0 %  From CXL to GPU: 0 %
LINK_UTIL GPU: 0Port: 0 From GPU to CXL: 0 %  From CXL to GPU: 0 %
LINK_UTIL GPU: 0Port: 0 From GPU to CXL: 0 %  From CXL to GPU: 0 %
LINK_UTIL GPU: 0Port: 0 From GPU to CXL: 0 %  From CXL to GPU: 0 %
LINK_UTIL GPU: 0Port: 0 From GPU to CXL: 0 %  From CXL to GPU: 0 %
LINK_UTIL GPU: 0Port: 0 From GPU to CXL: 0 %  From CXL to GPU: 0 %
LINK_UTIL GPU: 0Port: 0 From GPU to CXL: 0 %  From CXL to GPU: 0 %
LINK_UTIL GPU: 0Port: 0 From GPU to CXL: 0 %  From CXL to GPU: 0 %
CXL_0_ramulator_0 channel 0 0 reqs
CXL_0_ramulator_0 channel 1 0 reqs
CXL_0_ramulator_0 channel 2 0 reqs
CXL_0_ramulator_0 channel 3 0 reqs
CXL_0_ramulator_0 channel 4 0 reqs
CXL_0_ramulator_0 channel 5 0 reqs
CXL_0_ramulator_0 channel 6 0 reqs
CXL_0_ramulator_0 channel 7 0 reqs
LINK_UTIL GPU: 0Port: 0 From GPU to CXL: 0 %  From CXL to GPU: 0 %
LINK_UTIL GPU: 0Port: 0 From GPU to CXL: 0 %  From CXL to GPU: 0 %
LINK_UTIL GPU: 0Port: 0 From GPU to CXL: 0 %  From CXL to GPU: 0 %
LINK_UTIL GPU: 0Port: 0 From GPU to CXL: 0 %  From CXL to GPU: 0 %
LINK_UTIL GPU: 0Port: 0 From GPU to CXL: 0 %  From CXL to GPU: 0 %
LINK_UTIL GPU: 0Port: 0 From GPU to CXL: 0 %  From CXL to GPU: 0 %
LINK_UTIL GPU: 0Port: 0 From GPU to CXL: 0 %  From CXL to GPU: 0 %
LINK_UTIL GPU: 0Port: 0 From GPU to CXL: 0 %  From CXL to GPU: 0 %
LINK_UTIL GPU: 0Port: 0 From GPU to CXL: 0 %  From CXL to GPU: 0 %
LINK_UTIL GPU: 0Port: 0 From GPU to CXL: 0 %  From CXL to GPU: 0 %
LINK_UTIL GPU: 0Port: 0 From GPU to CXL: 0 %  From CXL to GPU: 0 %
LINK_UTIL GPU: 0Port: 0 From GPU to CXL: 0 %  From CXL to GPU: 0 %
GPU_ramulator_0 channel 0 3420 reqs
GPU_ramulator_1 channel 0 3493 reqs
GPU_ramulator_2 channel 0 3463 reqs
GPU_ramulator_3 channel 0 3430 reqs
GPU_ramulator_4 channel 0 3433 reqs
GPU_ramulator_5 channel 0 3483 reqs
GPU_ramulator_6 channel 0 3511 reqs
GPU_ramulator_7 channel 0 3484 reqs
LINK_UTIL GPU: 0Port: 0 From GPU to CXL: 0 %  From CXL to GPU: 0 %
LINK_UTIL GPU: 0Port: 0 From GPU to CXL: 0 %  From CXL to GPU: 0 %
LINK_UTIL GPU: 0Port: 0 From GPU to CXL: 0 %  From CXL to GPU: 0 %
LINK_UTIL GPU: 0Port: 0 From GPU to CXL: 0 %  From CXL to GPU: 0 %
CXL_0_ramulator_0 channel 0 0 reqs
CXL_0_ramulator_0 channel 1 0 reqs
CXL_0_ramulator_0 channel 2 0 reqs
CXL_0_ramulator_0 channel 3 0 reqs
CXL_0_ramulator_0 channel 4 0 reqs
CXL_0_ramulator_0 channel 5 0 reqs
CXL_0_ramulator_0 channel 6 0 reqs
CXL_0_ramulator_0 channel 7 0 reqs
LINK_UTIL GPU: 0Port: 0 From GPU to CXL: 0 %  From CXL to GPU: 0 %
LINK_UTIL GPU: 0Port: 0 From GPU to CXL: 0 %  From CXL to GPU: 0 %
LINK_UTIL GPU: 0Port: 0 From GPU to CXL: 0 %  From CXL to GPU: 0 %
LINK_UTIL GPU: 0Port: 0 From GPU to CXL: 0 %  From CXL to GPU: 0 %
LINK_UTIL GPU: 0Port: 0 From GPU to CXL: 0 %  From CXL to GPU: 0 %
LINK_UTIL GPU: 0Port: 0 From GPU to CXL: 0 %  From CXL to GPU: 0 %
LINK_UTIL GPU: 0Port: 0 From GPU to CXL: 0 %  From CXL to GPU: 0 %
LINK_UTIL GPU: 0Port: 0 From GPU to CXL: 0 %  From CXL to GPU: 0 %
INITIALIZER 
INITIALIZER 
INITIALIZER 
INITIALIZER 
INITIALIZER 
INITIALIZER 
INITIALIZER 
INITIALIZER 
LINK_UTIL GPU: 0Port: 0 From GPU to CXL: 34.65 %  From CXL to GPU: 5.49 %
INITIALIZER 
INITIALIZER 
INITIALIZER 
INITIALIZER 
INITIALIZER 
INITIALIZER 
INITIALIZER 
INITIALIZER 
LINK_UTIL GPU: 0Port: 0 From GPU to CXL: 73 %  From CXL to GPU: 12 %
LINK_UTIL GPU: 0Port: 0 From GPU to CXL: 59.4 %  From CXL to GPU: 11.86 %
LINK_UTIL GPU: 0Port: 0 From GPU to CXL: 60.75 %  From CXL to GPU: 12.16 %
LINK_UTIL GPU: 0Port: 0 From GPU to CXL: 59.6 %  From CXL to GPU: 11.92 %
LINK_UTIL GPU: 0Port: 0 From GPU to CXL: 59.95 %  From CXL to GPU: 11.99 %
LINK_UTIL GPU: 0Port: 0 From GPU to CXL: 59.15 %  From CXL to GPU: 11.83 %
LINK_UTIL GPU: 0Port: 0 From GPU to CXL: 58.9 %  From CXL to GPU: 11.78 %
CXL_0_ramulator_0 channel 0 1314 reqs
CXL_0_ramulator_0 channel 1 1292 reqs
CXL_0_ramulator_0 channel 2 1318 reqs
CXL_0_ramulator_0 channel 3 1304 reqs
CXL_0_ramulator_0 channel 4 1350 reqs
CXL_0_ramulator_0 channel 5 1322 reqs
CXL_0_ramulator_0 channel 6 1330 reqs
CXL_0_ramulator_0 channel 7 2453 reqs
GPU_ramulator_0 channel 0 1823 reqs
GPU_ramulator_1 channel 0 1828 reqs
GPU_ramulator_2 channel 0 1800 reqs
GPU_ramulator_3 channel 0 1781 reqs
GPU_ramulator_4 channel 0 1812 reqs
GPU_ramulator_5 channel 0 1827 reqs
GPU_ramulator_6 channel 0 1790 reqs
GPU_ramulator_7 channel 0 1782 reqs
LINK_UTIL GPU: 0Port: 0 From GPU to CXL: 58.55 %  From CXL to GPU: 11.73 %
LINK_UTIL GPU: 0Port: 0 From GPU to CXL: 61 %  From CXL to GPU: 12.18 %
LINK_UTIL GPU: 0Port: 0 From GPU to CXL: 58.85 %  From CXL to GPU: 11.78 %
LINK_UTIL GPU: 0Port: 0 From GPU to CXL: 59.65 %  From CXL to GPU: 11.95 %
LINK_UTIL GPU: 0Port: 0 From GPU to CXL: 58.55 %  From CXL to GPU: 11.68 %
GPU 0 thread block = 4,6,0
LINK_UTIL GPU: 0Port: 0 From GPU to CXL: 59.55 %  From CXL to GPU: 11.91 %
GPU 0 thread block = 5,6,0
LINK_UTIL GPU: 0Port: 0 From GPU to CXL: 60.3 %  From CXL to GPU: 12.07 %
GPU 0 thread block = 0,7,0
GPU 0 thread block = 1,7,0
LINK_UTIL GPU: 0Port: 0 From GPU to CXL: 59.85 %  From CXL to GPU: 11.96 %
LINK_UTIL GPU: 0Port: 0 From GPU to CXL: 58.4 %  From CXL to GPU: 11.68 %
GPU 0 thread block = 2,7,0
GPU 0 thread block = 3,7,0
GPU 0 thread block = 4,7,0


7/384 thread blocks finished
Elapsed time: 0 h, 1 min
Expected remaining time: 0 h, 53 min


GPU 0 thread block = 5,7,0
LINK_UTIL GPU: 0Port: 0 From GPU to CXL: 59.7 %  From CXL to GPU: 11.95 %
GPU 0 thread block = 0,8,0
LINK_UTIL GPU: 0Port: 0 From GPU to CXL: 58.9 %  From CXL to GPU: 11.77 %
GPU 0 thread block = 1,8,0
LINK_UTIL GPU: 0Port: 0 From GPU to CXL: 59.45 %  From CXL to GPU: 11.89 %
LINK_UTIL GPU: 0Port: 0 From GPU to CXL: 59.15 %  From CXL to GPU: 11.83 %
LINK_UTIL GPU: 0Port: 0 From GPU to CXL: 59.65 %  From CXL to GPU: 11.93 %
GPU 0 thread block = 2,8,0
LINK_UTIL GPU: 0Port: 0 From GPU to CXL: 60.55 %  From CXL to GPU: 12.12 %
LINK_UTIL GPU: 0Port: 0 From GPU to CXL: 58.8 %  From CXL to GPU: 11.75 %
CXL_0_ramulator_0 channel 0 2628 reqs
CXL_0_ramulator_0 channel 1 2646 reqs
CXL_0_ramulator_0 channel 2 2604 reqs
CXL_0_ramulator_0 channel 3 2594 reqs
CXL_0_ramulator_0 channel 4 2642 reqs
CXL_0_ramulator_0 channel 5 2596 reqs
CXL_0_ramulator_0 channel 6 2620 reqs
CXL_0_ramulator_0 channel 7 4583 reqs
LINK_UTIL GPU: 0Port: 0 From GPU to CXL: 59.35 %  From CXL to GPU: 11.87 %
GPU 0 thread block = 3,8,0
GPU 0 thread block = 4,8,0
LINK_UTIL GPU: 0Port: 0 From GPU to CXL: 59.9 %  From CXL to GPU: 11.98 %
GPU 0 thread block = 5,8,0
GPU 0 thread block = 0,9,0
LINK_UTIL GPU: 0Port: 0 From GPU to CXL: 58.95 %  From CXL to GPU: 11.79 %
GPU 0 thread block = 1,9,0
LINK_UTIL GPU: 0Port: 0 From GPU to CXL: 58.85 %  From CXL to GPU: 11.77 %
GPU 0 thread block = 2,9,0
GPU 0 thread block = 3,9,0
GPU_ramulator_0 channel 0 423 reqs
GPU_ramulator_1 channel 0 399 reqs
GPU_ramulator_2 channel 0 385 reqs
GPU_ramulator_3 channel 0 430 reqs
GPU_ramulator_4 channel 0 456 reqs
GPU_ramulator_5 channel 0 400 reqs
GPU_ramulator_6 channel 0 359 reqs
GPU_ramulator_7 channel 0 431 reqs
LINK_UTIL GPU: 0Port: 0 From GPU to CXL: 59.55 %  From CXL to GPU: 11.93 %
GPU 0 thread block = 4,9,0
LINK_UTIL GPU: 0Port: 0 From GPU to CXL: 59.15 %  From CXL to GPU: 11.81 %


19/384 thread blocks finished
Elapsed time: 0 h, 1 min
Expected remaining time: 0 h, 19 min


LINK_UTIL GPU: 0Port: 0 From GPU to CXL: 59.5 %  From CXL to GPU: 11.9 %
GPU 0 thread block = 5,9,0
GPU 0 thread block = 0,10,0
LINK_UTIL GPU: 0Port: 0 From GPU to CXL: 59.2 %  From CXL to GPU: 11.84 %
GPU 0 thread block = 1,10,0
GPU 0 thread block = 2,10,0
LINK_UTIL GPU: 0Port: 0 From GPU to CXL: 57.8 %  From CXL to GPU: 11.56 %
GPU 0 thread block = 3,10,0
GPU 0 thread block = 4,10,0
GPU 0 thread block = 5,10,0
LINK_UTIL GPU: 0Port: 0 From GPU to CXL: 58.8 %  From CXL to GPU: 11.76 %
GPU 0 thread block = 0,11,0
GPU 0 thread block = 1,11,0
GPU 0 thread block = 2,11,0
SIMD 6 FINALIZER 3072/3072 
SIMD 4 FINALIZER 3072/3072 
SIMD 0 FINALIZER 3072/3072 
SIMD 5 FINALIZER 3072/3072 
SIMD 7 FINALIZER 3072/3072 
SIMD 1 FINALIZER 3072/3072 
SIMD 2 FINALIZER 3072/3072 
SIMD 3 FINALIZER 3072/3072 
GPU 0 thread block = 3,11,0
LINK_UTIL GPU: 0Port: 0 From GPU to CXL: 40.65 %  From CXL to GPU: 12.09 %
GPU 0 thread block = 4,11,0
GPU 0 thread block = 5,11,0
GPU 0 thread block = 0,12,0
GPU 0 thread block = 1,12,0
GPU 0 thread block = 2,12,0
GPU 0 thread block = 3,12,0
GPU 0 thread block = 4,12,0
GPU 0 thread block = 5,12,0
GPU 0 thread block = 0,13,0
GPU 0 thread block = 1,13,0
LINK_UTIL GPU: 0Port: 0 From GPU to CXL: 0 %  From CXL to GPU: 0.09 %
LINK_UTIL GPU: 0Port: 0 From GPU to CXL: 0 %  From CXL to GPU: 0 %
LINK_UTIL GPU: 0Port: 0 From GPU to CXL: 0 %  From CXL to GPU: 0 %
LINK_UTIL GPU: 0Port: 0 From GPU to CXL: 0 %  From CXL to GPU: 0 %
LINK_UTIL GPU: 0Port: 0 From GPU to CXL: 0 %  From CXL to GPU: 0 %
CXL_0_ramulator_0 channel 0 2722 reqs
CXL_0_ramulator_0 channel 1 2718 reqs
CXL_0_ramulator_0 channel 2 2652 reqs
CXL_0_ramulator_0 channel 3 2698 reqs
CXL_0_ramulator_0 channel 4 2704 reqs
CXL_0_ramulator_0 channel 5 2671 reqs
CXL_0_ramulator_0 channel 6 2743 reqs
CXL_0_ramulator_0 channel 7 4722 reqs
LINK_UTIL GPU: 0Port: 0 From GPU to CXL: 0 %  From CXL to GPU: 0 %
LINK_UTIL GPU: 0Port: 0 From GPU to CXL: 0 %  From CXL to GPU: 0 %
LINK_UTIL GPU: 0Port: 0 From GPU to CXL: 0 %  From CXL to GPU: 0 %


40/384 thread blocks finished
Elapsed time: 0 h, 1 min
Expected remaining time: 0 h, 8 min


LINK_UTIL GPU: 0Port: 0 From GPU to CXL: 0 %  From CXL to GPU: 0 %
LINK_UTIL GPU: 0Port: 0 From GPU to CXL: 0 %  From CXL to GPU: 0 %
LINK_UTIL GPU: 0Port: 0 From GPU to CXL: 0 %  From CXL to GPU: 0 %
LINK_UTIL GPU: 0Port: 0 From GPU to CXL: 0 %  From CXL to GPU: 0 %
LINK_UTIL GPU: 0Port: 0 From GPU to CXL: 0 %  From CXL to GPU: 0 %
LINK_UTIL GPU: 0Port: 0 From GPU to CXL: 0 %  From CXL to GPU: 0 %
GPU_ramulator_0 channel 0 3660 reqs
GPU_ramulator_1 channel 0 3842 reqs
GPU_ramulator_2 channel 0 3823 reqs
GPU_ramulator_3 channel 0 3726 reqs
GPU_ramulator_4 channel 0 3699 reqs
GPU_ramulator_5 channel 0 3760 reqs
GPU_ramulator_6 channel 0 3852 reqs
GPU_ramulator_7 channel 0 3808 reqs
LINK_UTIL GPU: 0Port: 0 From GPU to CXL: 0 %  From CXL to GPU: 0 %
LINK_UTIL GPU: 0Port: 0 From GPU to CXL: 0 %  From CXL to GPU: 0 %
LINK_UTIL GPU: 0Port: 0 From GPU to CXL: 0 %  From CXL to GPU: 0 %
LINK_UTIL GPU: 0Port: 0 From GPU to CXL: 0 %  From CXL to GPU: 0 %
LINK_UTIL GPU: 0Port: 0 From GPU to CXL: 0 %  From CXL to GPU: 0 %
LINK_UTIL GPU: 0Port: 0 From GPU to CXL: 0 %  From CXL to GPU: 0 %
LINK_UTIL GPU: 0Port: 0 From GPU to CXL: 0 %  From CXL to GPU: 0 %


40/384 thread blocks finished
Elapsed time: 0 h, 2 min
Expected remaining time: 0 h, 17 min


CXL_0_ramulator_0 channel 0 2668 reqs
CXL_0_ramulator_0 channel 1 2586 reqs
CXL_0_ramulator_0 channel 2 2638 reqs
CXL_0_ramulator_0 channel 3 2588 reqs
CXL_0_ramulator_0 channel 4 2607 reqs
CXL_0_ramulator_0 channel 5 2641 reqs
CXL_0_ramulator_0 channel 6 2611 reqs
CXL_0_ramulator_0 channel 7 4583 reqs
LINK_UTIL GPU: 0Port: 0 From GPU to CXL: 0 %  From CXL to GPU: 0 %
LINK_UTIL GPU: 0Port: 0 From GPU to CXL: 0 %  From CXL to GPU: 0 %
LINK_UTIL GPU: 0Port: 0 From GPU to CXL: 0 %  From CXL to GPU: 0 %
LINK_UTIL GPU: 0Port: 0 From GPU to CXL: 0 %  From CXL to GPU: 0 %
LINK_UTIL GPU: 0Port: 0 From GPU to CXL: 0 %  From CXL to GPU: 0 %
LINK_UTIL GPU: 0Port: 0 From GPU to CXL: 0 %  From CXL to GPU: 0 %
LINK_UTIL GPU: 0Port: 0 From GPU to CXL: 0 %  From CXL to GPU: 0 %
LINK_UTIL GPU: 0Port: 0 From GPU to CXL: 0 %  From CXL to GPU: 0 %
LINK_UTIL GPU: 0Port: 0 From GPU to CXL: 0 %  From CXL to GPU: 0 %
LINK_UTIL GPU: 0Port: 0 From GPU to CXL: 0 %  From CXL to GPU: 0 %
LINK_UTIL GPU: 0Port: 0 From GPU to CXL: 0 %  From CXL to GPU: 0 %
LINK_UTIL GPU: 0Port: 0 From GPU to CXL: 0 %  From CXL to GPU: 0 %


40/384 thread blocks finished
Elapsed time: 0 h, 2 min
Expected remaining time: 0 h, 17 min


LINK_UTIL GPU: 0Port: 0 From GPU to CXL: 0 %  From CXL to GPU: 0 %
GPU_ramulator_0 channel 0 3893 reqs
GPU_ramulator_1 channel 0 3808 reqs
GPU_ramulator_2 channel 0 3855 reqs
GPU_ramulator_3 channel 0 3791 reqs
GPU_ramulator_4 channel 0 3849 reqs
GPU_ramulator_5 channel 0 3725 reqs
GPU_ramulator_6 channel 0 3855 reqs
GPU_ramulator_7 channel 0 3797 reqs
LINK_UTIL GPU: 0Port: 0 From GPU to CXL: 0 %  From CXL to GPU: 0 %
LINK_UTIL GPU: 0Port: 0 From GPU to CXL: 0 %  From CXL to GPU: 0 %
LINK_UTIL GPU: 0Port: 0 From GPU to CXL: 0 %  From CXL to GPU: 0 %
CXL_0_ramulator_0 channel 0 2632 reqs
CXL_0_ramulator_0 channel 1 2668 reqs
CXL_0_ramulator_0 channel 2 2663 reqs
CXL_0_ramulator_0 channel 3 2596 reqs
CXL_0_ramulator_0 channel 4 2561 reqs
CXL_0_ramulator_0 channel 5 2628 reqs
CXL_0_ramulator_0 channel 6 2572 reqs
CXL_0_ramulator_0 channel 7 4583 reqs
LINK_UTIL GPU: 0Port: 0 From GPU to CXL: 0 %  From CXL to GPU: 0 %
LINK_UTIL GPU: 0Port: 0 From GPU to CXL: 0 %  From CXL to GPU: 0 %
LINK_UTIL GPU: 0Port: 0 From GPU to CXL: 0 %  From CXL to GPU: 0 %
LINK_UTIL GPU: 0Port: 0 From GPU to CXL: 0 %  From CXL to GPU: 0 %
LINK_UTIL GPU: 0Port: 0 From GPU to CXL: 0 %  From CXL to GPU: 0 %
LINK_UTIL GPU: 0Port: 0 From GPU to CXL: 0 %  From CXL to GPU: 0 %
LINK_UTIL GPU: 0Port: 0 From GPU to CXL: 0 %  From CXL to GPU: 0 %
LINK_UTIL GPU: 0Port: 0 From GPU to CXL: 0 %  From CXL to GPU: 0 %
LINK_UTIL GPU: 0Port: 0 From GPU to CXL: 0 %  From CXL to GPU: 0 %


40/384 thread blocks finished
Elapsed time: 0 h, 2 min
Expected remaining time: 0 h, 17 min


LINK_UTIL GPU: 0Port: 0 From GPU to CXL: 0 %  From CXL to GPU: 0 %
LINK_UTIL GPU: 0Port: 0 From GPU to CXL: 7.15 %  From CXL to GPU: 1.32 %
LINK_UTIL GPU: 0Port: 0 From GPU to CXL: 20.85 %  From CXL to GPU: 4.28 %
LINK_UTIL GPU: 0Port: 0 From GPU to CXL: 16.95 %  From CXL to GPU: 3.28 %
LINK_UTIL GPU: 0Port: 0 From GPU to CXL: 3.35 %  From CXL to GPU: 0.76 %
GPU 0 thread block = 2,13,0
LINK_UTIL GPU: 0Port: 0 From GPU to CXL: 17.55 %  From CXL to GPU: 3.43 %
LINK_UTIL GPU: 0Port: 0 From GPU to CXL: 64.3 %  From CXL to GPU: 10.94 %
CXL_0_ramulator_0 channel 0 2718 reqs
CXL_0_ramulator_0 channel 1 2666 reqs
CXL_0_ramulator_0 channel 2 2601 reqs
CXL_0_ramulator_0 channel 3 2710 reqs
CXL_0_ramulator_0 channel 4 2724 reqs
CXL_0_ramulator_0 channel 5 2803 reqs
CXL_0_ramulator_0 channel 6 2692 reqs
CXL_0_ramulator_0 channel 7 4722 reqs
LINK_UTIL GPU: 0Port: 0 From GPU to CXL: 69.2 %  From CXL to GPU: 11.82 %
GPU_ramulator_0 channel 0 3458 reqs
GPU_ramulator_1 channel 0 3441 reqs
GPU_ramulator_2 channel 0 3452 reqs
GPU_ramulator_3 channel 0 3542 reqs
GPU_ramulator_4 channel 0 3468 reqs
GPU_ramulator_5 channel 0 3576 reqs
GPU_ramulator_6 channel 0 3406 reqs
GPU_ramulator_7 channel 0 3402 reqs
LINK_UTIL GPU: 0Port: 0 From GPU to CXL: 59.75 %  From CXL to GPU: 11.95 %
GPU 0 thread block = 3,13,0
INITIALIZER 
INITIALIZER 
INITIALIZER 
INITIALIZER 
INITIALIZER 
INITIALIZER 
INITIALIZER 
INITIALIZER 
LINK_UTIL GPU: 0Port: 0 From GPU to CXL: 60.8 %  From CXL to GPU: 12.16 %
LINK_UTIL GPU: 0Port: 0 From GPU to CXL: 59.3 %  From CXL to GPU: 11.84 %
LINK_UTIL GPU: 0Port: 0 From GPU to CXL: 59.1 %  From CXL to GPU: 11.82 %
GPU 0 thread block = 4,13,0
LINK_UTIL GPU: 0Port: 0 From GPU to CXL: 59.9 %  From CXL to GPU: 12 %
GPU 0 thread block = 5,13,0


44/384 thread blocks finished
Elapsed time: 0 h, 2 min
Expected remaining time: 0 h, 15 min


LINK_UTIL GPU: 0Port: 0 From GPU to CXL: 59.1 %  From CXL to GPU: 11.82 %
LINK_UTIL GPU: 0Port: 0 From GPU to CXL: 59.55 %  From CXL to GPU: 11.9 %
INITIALIZER 
INITIALIZER 
INITIALIZER 
INITIALIZER 
GPU 0 thread block = 0,14,0
INITIALIZER 
INITIALIZER 
INITIALIZER 
INITIALIZER 
LINK_UTIL GPU: 0Port: 0 From GPU to CXL: 60.7 %  From CXL to GPU: 12.14 %
SIMD 2 FINALIZER 3072/3072 
LINK_UTIL GPU: 0Port: 0 From GPU to CXL: 60.55 %  From CXL to GPU: 12.1 %
SIMD 6 FINALIZER 3072/3072 
SIMD 0 FINALIZER 3072/3072 
SIMD 4 FINALIZER 3072/3072 
SIMD 5 FINALIZER 3072/3072 
SIMD 7 FINALIZER 3072/3072 
GPU 0 thread block = 1,14,0
GPU 0 thread block = 2,14,0
SIMD 1 FINALIZER 3072/3072 
SIMD 3 FINALIZER 3072/3072 
LINK_UTIL GPU: 0Port: 0 From GPU to CXL: 59.05 %  From CXL to GPU: 11.82 %
GPU 0 thread block = 3,14,0
LINK_UTIL GPU: 0Port: 0 From GPU to CXL: 58.4 %  From CXL to GPU: 11.68 %
GPU 0 thread block = 4,14,0
LINK_UTIL GPU: 0Port: 0 From GPU to CXL: 59.4 %  From CXL to GPU: 11.88 %
LINK_UTIL GPU: 0Port: 0 From GPU to CXL: 60.05 %  From CXL to GPU: 12 %
LINK_UTIL GPU: 0Port: 0 From GPU to CXL: 60.15 %  From CXL to GPU: 12.03 %
LINK_UTIL GPU: 0Port: 0 From GPU to CXL: 60.6 %  From CXL to GPU: 12.14 %
CXL_0_ramulator_0 channel 0 2609 reqs
CXL_0_ramulator_0 channel 1 2628 reqs
CXL_0_ramulator_0 channel 2 2578 reqs
CXL_0_ramulator_0 channel 3 2597 reqs
CXL_0_ramulator_0 channel 4 2634 reqs
CXL_0_ramulator_0 channel 5 2645 reqs
CXL_0_ramulator_0 channel 6 2634 reqs
CXL_0_ramulator_0 channel 7 4583 reqs
LINK_UTIL GPU: 0Port: 0 From GPU to CXL: 59.15 %  From CXL to GPU: 11.82 %
GPU 0 thread block = 5,14,0
GPU 0 thread block = 0,15,0
LINK_UTIL GPU: 0Port: 0 From GPU to CXL: 59.05 %  From CXL to GPU: 11.85 %
LINK_UTIL GPU: 0Port: 0 From GPU to CXL: 59.8 %  From CXL to GPU: 11.92 %
GPU 0 thread block = 1,15,0


52/384 thread blocks finished
Elapsed time: 0 h, 3 min
Expected remaining time: 0 h, 19 min


LINK_UTIL GPU: 0Port: 0 From GPU to CXL: 59.15 %  From CXL to GPU: 11.83 %
LINK_UTIL GPU: 0Port: 0 From GPU to CXL: 59.25 %  From CXL to GPU: 11.86 %
GPU_ramulator_0 channel 0 818 reqs
GPU_ramulator_1 channel 0 794 reqs
GPU_ramulator_2 channel 0 805 reqs
GPU_ramulator_3 channel 0 807 reqs
GPU_ramulator_4 channel 0 820 reqs
GPU_ramulator_5 channel 0 807 reqs
GPU_ramulator_6 channel 0 828 reqs
GPU_ramulator_7 channel 0 894 reqs
LINK_UTIL GPU: 0Port: 0 From GPU to CXL: 61 %  From CXL to GPU: 12.19 %
LINK_UTIL GPU: 0Port: 0 From GPU to CXL: 60.1 %  From CXL to GPU: 12.02 %
GPU 0 thread block = 2,15,0
GPU 0 thread block = 3,15,0
LINK_UTIL GPU: 0Port: 0 From GPU to CXL: 58.8 %  From CXL to GPU: 11.76 %
GPU 0 thread block = 4,15,0
GPU 0 thread block = 5,15,0
LINK_UTIL GPU: 0Port: 0 From GPU to CXL: 58.85 %  From CXL to GPU: 11.77 %
GPU 0 thread block = 0,16,0
LINK_UTIL GPU: 0Port: 0 From GPU to CXL: 59.15 %  From CXL to GPU: 11.83 %
LINK_UTIL GPU: 0Port: 0 From GPU to CXL: 59.35 %  From CXL to GPU: 11.85 %
GPU 0 thread block = 1,16,0
GPU 0 thread block = 2,16,0
LINK_UTIL GPU: 0Port: 0 From GPU to CXL: 60.3 %  From CXL to GPU: 12.08 %
GPU 0 thread block = 3,16,0
GPU 0 thread block = 4,16,0
GPU 0 thread block = 5,16,0
LINK_UTIL GPU: 0Port: 0 From GPU to CXL: 59.1 %  From CXL to GPU: 11.82 %
GPU 0 thread block = 0,17,0
GPU 0 thread block = 1,17,0
LINK_UTIL GPU: 0Port: 0 From GPU to CXL: 60 %  From CXL to GPU: 11.99 %
LINK_UTIL GPU: 0Port: 0 From GPU to CXL: 59.35 %  From CXL to GPU: 11.89 %
GPU 0 thread block = 2,17,0
GPU 0 thread block = 3,17,0
LINK_UTIL GPU: 0Port: 0 From GPU to CXL: 56.2 %  From CXL to GPU: 11.72 %
GPU 0 thread block = 4,17,0


68/384 thread blocks finished
Elapsed time: 0 h, 3 min
Expected remaining time: 0 h, 13 min


GPU 0 thread block = 5,17,0
CXL_0_ramulator_0 channel 0 2723 reqs
CXL_0_ramulator_0 channel 1 2720 reqs
CXL_0_ramulator_0 channel 2 2746 reqs
CXL_0_ramulator_0 channel 3 2681 reqs
CXL_0_ramulator_0 channel 4 2715 reqs
CXL_0_ramulator_0 channel 5 2640 reqs
CXL_0_ramulator_0 channel 6 2654 reqs
CXL_0_ramulator_0 channel 7 4722 reqs
GPU 0 thread block = 0,18,0
SIMD 0 FINALIZER 3072/3072 
SIMD 5 FINALIZER 3072/3072 
SIMD 1 FINALIZER 3072/3072 
SIMD 6 FINALIZER 3072/3072 
SIMD 2 FINALIZER 3072/3072 
SIMD 3 FINALIZER 3072/3072 
SIMD 4 FINALIZER 3072/3072 
SIMD 7 FINALIZER 3072/3072 
GPU 0 thread block = 1,18,0
GPU 0 thread block = 2,18,0
GPU 0 thread block = 3,18,0
GPU 0 thread block = 4,18,0
GPU 0 thread block = 5,18,0
GPU 0 thread block = 0,19,0
GPU 0 thread block = 1,19,0
GPU 0 thread block = 2,19,0
GPU 0 thread block = 3,19,0
GPU 0 thread block = 4,19,0
GPU 0 thread block = 5,19,0
LINK_UTIL GPU: 0Port: 0 From GPU to CXL: 3.65 %  From CXL to GPU: 4.29 %
LINK_UTIL GPU: 0Port: 0 From GPU to CXL: 0 %  From CXL to GPU: 0 %
LINK_UTIL GPU: 0Port: 0 From GPU to CXL: 0 %  From CXL to GPU: 0 %
EXIT simd 0, 31 1function slot 0, finish counter 16
EXIT simd 5, 31 1function slot 0, finish counter 16
LINK_UTIL GPU: 0Port: 0 From GPU to CXL: 0 %  From CXL to GPU: 0 %
EXIT simd 4, 31 1function slot 0, finish counter 16
EXIT simd 1, 31 1function slot 0, finish counter 16
EXIT simd 2, 31 1function slot 0, finish counter 16
EXIT simd 3, 31 1function slot 0, finish counter 16
EXIT simd 6, 31 1function slot 0, finish counter 16
LINK_UTIL GPU: 0Port: 0 From GPU to CXL: 0 %  From CXL to GPU: 0 %
LINK_UTIL GPU: 0Port: 0 From GPU to CXL: 0 %  From CXL to GPU: 0 %
LINK_UTIL GPU: 0Port: 0 From GPU to CXL: 0 %  From CXL to GPU: 0 %
LINK_UTIL GPU: 0Port: 0 From GPU to CXL: 0 %  From CXL to GPU: 0 %
LINK_UTIL GPU: 0Port: 0 From GPU to CXL: 0 %  From CXL to GPU: 0 %
GPU_ramulator_0 channel 0 3509 reqs
GPU_ramulator_1 channel 0 3448 reqs
GPU_ramulator_2 channel 0 3400 reqs
GPU_ramulator_3 channel 0 3380 reqs
GPU_ramulator_4 channel 0 3431 reqs
GPU_ramulator_5 channel 0 3399 reqs
GPU_ramulator_6 channel 0 3486 reqs
GPU_ramulator_7 channel 0 3432 reqs
LINK_UTIL GPU: 0Port: 0 From GPU to CXL: 0 %  From CXL to GPU: 0 %
LINK_UTIL GPU: 0Port: 0 From GPU to CXL: 0 %  From CXL to GPU: 0 %
LINK_UTIL GPU: 0Port: 0 From GPU to CXL: 0 %  From CXL to GPU: 0 %


80/384 thread blocks finished
Elapsed time: 0 h, 3 min
Expected remaining time: 0 h, 11 min


LINK_UTIL GPU: 0Port: 0 From GPU to CXL: 0 %  From CXL to GPU: 0 %
LINK_UTIL GPU: 0Port: 0 From GPU to CXL: 0 %  From CXL to GPU: 0 %
LINK_UTIL GPU: 0Port: 0 From GPU to CXL: 0 %  From CXL to GPU: 0 %
LINK_UTIL GPU: 0Port: 0 From GPU to CXL: 0 %  From CXL to GPU: 0 %
CXL_0_ramulator_0 channel 0 2632 reqs
CXL_0_ramulator_0 channel 1 2640 reqs
CXL_0_ramulator_0 channel 2 2661 reqs
CXL_0_ramulator_0 channel 3 2638 reqs
CXL_0_ramulator_0 channel 4 2611 reqs
CXL_0_ramulator_0 channel 5 2658 reqs
CXL_0_ramulator_0 channel 6 2566 reqs
CXL_0_ramulator_0 channel 7 4583 reqs
LINK_UTIL GPU: 0Port: 0 From GPU to CXL: 0 %  From CXL to GPU: 0 %
LINK_UTIL GPU: 0Port: 0 From GPU to CXL: 0 %  From CXL to GPU: 0 %
LINK_UTIL GPU: 0Port: 0 From GPU to CXL: 0 %  From CXL to GPU: 0 %
LINK_UTIL GPU: 0Port: 0 From GPU to CXL: 0 %  From CXL to GPU: 0 %
LINK_UTIL GPU: 0Port: 0 From GPU to CXL: 0 %  From CXL to GPU: 0 %
LINK_UTIL GPU: 0Port: 0 From GPU to CXL: 0 %  From CXL to GPU: 0 %
LINK_UTIL GPU: 0Port: 0 From GPU to CXL: 0 %  From CXL to GPU: 0 %
LINK_UTIL GPU: 0Port: 0 From GPU to CXL: 0 %  From CXL to GPU: 0 %
LINK_UTIL GPU: 0Port: 0 From GPU to CXL: 0 %  From CXL to GPU: 0 %


80/384 thread blocks finished
Elapsed time: 0 h, 3 min
Expected remaining time: 0 h, 11 min


LINK_UTIL GPU: 0Port: 0 From GPU to CXL: 0 %  From CXL to GPU: 0 %
LINK_UTIL GPU: 0Port: 0 From GPU to CXL: 0 %  From CXL to GPU: 0 %
LINK_UTIL GPU: 0Port: 0 From GPU to CXL: 0 %  From CXL to GPU: 0 %
LINK_UTIL GPU: 0Port: 0 From GPU to CXL: 0 %  From CXL to GPU: 0 %
GPU_ramulator_0 channel 0 3596 reqs
GPU_ramulator_1 channel 0 3606 reqs
GPU_ramulator_2 channel 0 3547 reqs
GPU_ramulator_3 channel 0 3497 reqs
GPU_ramulator_4 channel 0 3479 reqs
GPU_ramulator_5 channel 0 3470 reqs
GPU_ramulator_6 channel 0 3533 reqs
GPU_ramulator_7 channel 0 3537 reqs
LINK_UTIL GPU: 0Port: 0 From GPU to CXL: 0 %  From CXL to GPU: 0 %
LINK_UTIL GPU: 0Port: 0 From GPU to CXL: 0 %  From CXL to GPU: 0 %
LINK_UTIL GPU: 0Port: 0 From GPU to CXL: 0 %  From CXL to GPU: 0 %
CXL_0_ramulator_0 channel 0 2634 reqs
CXL_0_ramulator_0 channel 1 2706 reqs
CXL_0_ramulator_0 channel 2 2711 reqs
CXL_0_ramulator_0 channel 3 2712 reqs
CXL_0_ramulator_0 channel 4 2694 reqs
CXL_0_ramulator_0 channel 5 2716 reqs
CXL_0_ramulator_0 channel 6 2666 reqs
CXL_0_ramulator_0 channel 7 4722 reqs
LINK_UTIL GPU: 0Port: 0 From GPU to CXL: 0 %  From CXL to GPU: 0 %
LINK_UTIL GPU: 0Port: 0 From GPU to CXL: 0 %  From CXL to GPU: 0 %
LINK_UTIL GPU: 0Port: 0 From GPU to CXL: 0 %  From CXL to GPU: 0 %
LINK_UTIL GPU: 0Port: 0 From GPU to CXL: 0 %  From CXL to GPU: 0 %
LINK_UTIL GPU: 0Port: 0 From GPU to CXL: 19.5 %  From CXL to GPU: 3.76 %
LINK_UTIL GPU: 0Port: 0 From GPU to CXL: 18.3 %  From CXL to GPU: 3.79 %


80/384 thread blocks finished
Elapsed time: 0 h, 4 min
Expected remaining time: 0 h, 15 min


LINK_UTIL GPU: 0Port: 0 From GPU to CXL: 9.3 %  From CXL to GPU: 1.84 %
GPU 0 thread block = 0,20,0
LINK_UTIL GPU: 0Port: 0 From GPU to CXL: 16.9 %  From CXL to GPU: 3.41 %
LINK_UTIL GPU: 0Port: 0 From GPU to CXL: 23.45 %  From CXL to GPU: 4.56 %
LINK_UTIL GPU: 0Port: 0 From GPU to CXL: 35.65 %  From CXL to GPU: 7.22 %
GPU 0 thread block = 1,20,0
LINK_UTIL GPU: 0Port: 0 From GPU to CXL: 47.15 %  From CXL to GPU: 9.42 %
LINK_UTIL GPU: 0Port: 0 From GPU to CXL: 32.75 %  From CXL to GPU: 6.46 %
GPU 0 thread block = 2,20,0
LINK_UTIL GPU: 0Port: 0 From GPU to CXL: 32.1 %  From CXL to GPU: 6.48 %
GPU 0 thread block = 3,20,0
LINK_UTIL GPU: 0Port: 0 From GPU to CXL: 10 %  From CXL to GPU: 2.04 %
GPU 0 thread block = 4,20,0
LINK_UTIL GPU: 0Port: 0 From GPU to CXL: 10.9 %  From CXL to GPU: 2.22 %
EXIT simd 2, 31 1function slot 0, finish counter 15
EXIT simd 6, 31 1function slot 0, finish counter 15
LINK_UTIL GPU: 0Port: 0 From GPU to CXL: 0 %  From CXL to GPU: 0 %
CXL_0_ramulator_0 channel 0 2632 reqs
CXL_0_ramulator_0 channel 1 2630 reqs
CXL_0_ramulator_0 channel 2 2598 reqs
CXL_0_ramulator_0 channel 3 2660 reqs
CXL_0_ramulator_0 channel 4 2600 reqs
CXL_0_ramulator_0 channel 5 2624 reqs
CXL_0_ramulator_0 channel 6 2575 reqs
CXL_0_ramulator_0 channel 7 4583 reqs
EXIT simd 5, 31 1function slot 0, finish counter 15
EXIT simd 0, 31 1function slot 0, finish counter 15
LINK_UTIL GPU: 0Port: 0 From GPU to CXL: 0 %  From CXL to GPU: 0 %
EXIT simd 4, 31 1function slot 0, finish counter 15
GPU_ramulator_0 channel 0 3009 reqs
GPU_ramulator_1 channel 0 3047 reqs
GPU_ramulator_2 channel 0 3280 reqs
GPU_ramulator_3 channel 0 3119 reqs
GPU_ramulator_4 channel 0 3282 reqs
GPU_ramulator_5 channel 0 3236 reqs
GPU_ramulator_6 channel 0 3061 reqs
GPU_ramulator_7 channel 0 3045 reqs
LINK_UTIL GPU: 0Port: 0 From GPU to CXL: 0 %  From CXL to GPU: 0 %
EXIT simd 3, 31 1function slot 0, finish counter 15
LINK_UTIL GPU: 0Port: 0 From GPU to CXL: 0 %  From CXL to GPU: 0 %
EXIT simd 1, 31 1function slot 0, finish counter 15


85/384 thread blocks finished
Elapsed time: 0 h, 4 min
Expected remaining time: 0 h, 14 min


LINK_UTIL GPU: 0Port: 0 From GPU to CXL: 0 %  From CXL to GPU: 0 %
LINK_UTIL GPU: 0Port: 0 From GPU to CXL: 22.65 %  From CXL to GPU: 4.4 %
LINK_UTIL GPU: 0Port: 0 From GPU to CXL: 16.45 %  From CXL to GPU: 3.38 %
LINK_UTIL GPU: 0Port: 0 From GPU to CXL: 24.65 %  From CXL to GPU: 4.53 %
GPU 0 thread block = 5,20,0
LINK_UTIL GPU: 0Port: 0 From GPU to CXL: 53.25 %  From CXL to GPU: 9.8 %
INITIALIZER 
INITIALIZER 
INITIALIZER 
INITIALIZER 
INITIALIZER 
INITIALIZER 
INITIALIZER 
INITIALIZER 
LINK_UTIL GPU: 0Port: 0 From GPU to CXL: 73.3 %  From CXL to GPU: 11.91 %
LINK_UTIL GPU: 0Port: 0 From GPU to CXL: 60.2 %  From CXL to GPU: 12.03 %
LINK_UTIL GPU: 0Port: 0 From GPU to CXL: 60.75 %  From CXL to GPU: 12.16 %
LINK_UTIL GPU: 0Port: 0 From GPU to CXL: 59.9 %  From CXL to GPU: 11.97 %
LINK_UTIL GPU: 0Port: 0 From GPU to CXL: 59.35 %  From CXL to GPU: 11.87 %
LINK_UTIL GPU: 0Port: 0 From GPU to CXL: 59.8 %  From CXL to GPU: 11.96 %
LINK_UTIL GPU: 0Port: 0 From GPU to CXL: 58.75 %  From CXL to GPU: 11.75 %
GPU 0 thread block = 0,21,0
LINK_UTIL GPU: 0Port: 0 From GPU to CXL: 59.4 %  From CXL to GPU: 11.87 %


87/384 thread blocks finished
Elapsed time: 0 h, 4 min
Expected remaining time: 0 h, 13 min


CXL_0_ramulator_0 channel 0 2758 reqs
CXL_0_ramulator_0 channel 1 2662 reqs
CXL_0_ramulator_0 channel 2 2680 reqs
CXL_0_ramulator_0 channel 3 2652 reqs
CXL_0_ramulator_0 channel 4 2672 reqs
CXL_0_ramulator_0 channel 5 2638 reqs
CXL_0_ramulator_0 channel 6 2675 reqs
CXL_0_ramulator_0 channel 7 4672 reqs
GPU 0 thread block = 1,21,0
LINK_UTIL GPU: 0Port: 0 From GPU to CXL: 61.2 %  From CXL to GPU: 12.26 %
LINK_UTIL GPU: 0Port: 0 From GPU to CXL: 58.55 %  From CXL to GPU: 11.7 %
GPU 0 thread block = 2,21,0
LINK_UTIL GPU: 0Port: 0 From GPU to CXL: 58.9 %  From CXL to GPU: 11.78 %
GPU 0 thread block = 3,21,0
LINK_UTIL GPU: 0Port: 0 From GPU to CXL: 58.7 %  From CXL to GPU: 11.74 %
GPU 0 thread block = 4,21,0
LINK_UTIL GPU: 0Port: 0 From GPU to CXL: 58.8 %  From CXL to GPU: 11.76 %
GPU 0 thread block = 5,21,0
GPU 0 thread block = 0,22,0
LINK_UTIL GPU: 0Port: 0 From GPU to CXL: 59 %  From CXL to GPU: 11.81 %
GPU_ramulator_0 channel 0 1961 reqs
GPU_ramulator_1 channel 0 2019 reqs
GPU_ramulator_2 channel 0 1904 reqs
GPU_ramulator_3 channel 0 1947 reqs
GPU_ramulator_4 channel 0 1881 reqs
GPU_ramulator_5 channel 0 1937 reqs
GPU_ramulator_6 channel 0 2021 reqs
GPU_ramulator_7 channel 0 1983 reqs
LINK_UTIL GPU: 0Port: 0 From GPU to CXL: 60.6 %  From CXL to GPU: 12.1 %
GPU 0 thread block = 1,22,0
LINK_UTIL GPU: 0Port: 0 From GPU to CXL: 59.3 %  From CXL to GPU: 11.87 %
LINK_UTIL GPU: 0Port: 0 From GPU to CXL: 59.4 %  From CXL to GPU: 11.89 %
LINK_UTIL GPU: 0Port: 0 From GPU to CXL: 58.85 %  From CXL to GPU: 11.76 %
LINK_UTIL GPU: 0Port: 0 From GPU to CXL: 58.75 %  From CXL to GPU: 11.76 %
GPU 0 thread block = 2,22,0
LINK_UTIL GPU: 0Port: 0 From GPU to CXL: 60.25 %  From CXL to GPU: 12.05 %
GPU 0 thread block = 3,22,0


96/384 thread blocks finished
Elapsed time: 0 h, 4 min
Expected remaining time: 0 h, 12 min


LINK_UTIL GPU: 0Port: 0 From GPU to CXL: 60.15 %  From CXL to GPU: 12.02 %
GPU 0 thread block = 4,22,0
LINK_UTIL GPU: 0Port: 0 From GPU to CXL: 58.95 %  From CXL to GPU: 11.79 %
SIMD 6 FINALIZER 3072/3072 
LINK_UTIL GPU: 0Port: 0 From GPU to CXL: 57.85 %  From CXL to GPU: 11.62 %
GPU 0 thread block = 5,22,0
SIMD 7 FINALIZER 3072/3072 
GPU 0 thread block = 0,23,0
SIMD 0 FINALIZER 3072/3072 
SIMD 1 FINALIZER 3072/3072 
GPU 0 thread block = 1,23,0
LINK_UTIL GPU: 0Port: 0 From GPU to CXL: 59.55 %  From CXL to GPU: 11.86 %
SIMD 2 FINALIZER 3072/3072 
CXL_0_ramulator_0 channel 0 2691 reqs
CXL_0_ramulator_0 channel 1 2581 reqs
CXL_0_ramulator_0 channel 2 2650 reqs
CXL_0_ramulator_0 channel 3 2688 reqs
CXL_0_ramulator_0 channel 4 2610 reqs
CXL_0_ramulator_0 channel 5 2630 reqs
CXL_0_ramulator_0 channel 6 2651 reqs
CXL_0_ramulator_0 channel 7 4633 reqs
SIMD 4 FINALIZER 3072/3072 
GPU 0 thread block = 2,23,0
SIMD 5 FINALIZER 3072/3072 
SIMD 3 FINALIZER 3072/3072 
GPU 0 thread block = 3,23,0
GPU 0 thread block = 4,23,0
LINK_UTIL GPU: 0Port: 0 From GPU to CXL: 59.4 %  From CXL to GPU: 11.89 %
GPU 0 thread block = 5,23,0
GPU 0 thread block = 0,24,0
GPU 0 thread block = 1,24,0
LINK_UTIL GPU: 0Port: 0 From GPU to CXL: 59.1 %  From CXL to GPU: 11.8 %
GPU 0 thread block = 2,24,0
LINK_UTIL GPU: 0Port: 0 From GPU to CXL: 60.2 %  From CXL to GPU: 12.05 %
GPU 0 thread block = 3,24,0
GPU 0 thread block = 4,24,0
GPU 0 thread block = 5,24,0
LINK_UTIL GPU: 0Port: 0 From GPU to CXL: 54.8 %  From CXL to GPU: 12.17 %
SIMD 2 FINALIZER 3072/3072 
SIMD 0 FINALIZER 3072/3072 
SIMD 1 FINALIZER 3072/3072 
SIMD 5 FINALIZER 3072/3072 
SIMD 3 FINALIZER 3072/3072 
SIMD 6 FINALIZER 3072/3072 
SIMD 4 FINALIZER 3072/3072 
SIMD 7 FINALIZER 3072/3072 
GPU 0 thread block = 0,25,0
GPU 0 thread block = 1,25,0
GPU 0 thread block = 2,25,0
GPU 0 thread block = 3,25,0
GPU 0 thread block = 4,25,0
GPU 0 thread block = 5,25,0
GPU 0 thread block = 0,26,0
GPU 0 thread block = 1,26,0
GPU 0 thread block = 2,26,0
GPU 0 thread block = 3,26,0
LINK_UTIL GPU: 0Port: 0 From GPU to CXL: 1.25 %  From CXL to GPU: 3.09 %
LINK_UTIL GPU: 0Port: 0 From GPU to CXL: 0 %  From CXL to GPU: 0 %
LINK_UTIL GPU: 0Port: 0 From GPU to CXL: 0 %  From CXL to GPU: 0 %
LINK_UTIL GPU: 0Port: 0 From GPU to CXL: 0 %  From CXL to GPU: 0 %
LINK_UTIL GPU: 0Port: 0 From GPU to CXL: 0 %  From CXL to GPU: 0 %


120/384 thread blocks finished
Elapsed time: 0 h, 5 min
Expected remaining time: 0 h, 11 min


LINK_UTIL GPU: 0Port: 0 From GPU to CXL: 0 %  From CXL to GPU: 0 %
GPU_ramulator_0 channel 0 2831 reqs
GPU_ramulator_1 channel 0 2816 reqs
GPU_ramulator_2 channel 0 2864 reqs
GPU_ramulator_3 channel 0 2923 reqs
GPU_ramulator_4 channel 0 2926 reqs
GPU_ramulator_5 channel 0 2947 reqs
GPU_ramulator_6 channel 0 2917 reqs
GPU_ramulator_7 channel 0 2956 reqs
LINK_UTIL GPU: 0Port: 0 From GPU to CXL: 0 %  From CXL to GPU: 0 %
LINK_UTIL GPU: 0Port: 0 From GPU to CXL: 0 %  From CXL to GPU: 0 %
LINK_UTIL GPU: 0Port: 0 From GPU to CXL: 0 %  From CXL to GPU: 0 %
LINK_UTIL GPU: 0Port: 0 From GPU to CXL: 0 %  From CXL to GPU: 0 %
LINK_UTIL GPU: 0Port: 0 From GPU to CXL: 0 %  From CXL to GPU: 0 %
LINK_UTIL GPU: 0Port: 0 From GPU to CXL: 0 %  From CXL to GPU: 0 %
CXL_0_ramulator_0 channel 0 2625 reqs
CXL_0_ramulator_0 channel 1 2637 reqs
CXL_0_ramulator_0 channel 2 2616 reqs
CXL_0_ramulator_0 channel 3 2650 reqs
CXL_0_ramulator_0 channel 4 2641 reqs
CXL_0_ramulator_0 channel 5 2620 reqs
CXL_0_ramulator_0 channel 6 2558 reqs
CXL_0_ramulator_0 channel 7 4583 reqs
LINK_UTIL GPU: 0Port: 0 From GPU to CXL: 0 %  From CXL to GPU: 0 %
LINK_UTIL GPU: 0Port: 0 From GPU to CXL: 0 %  From CXL to GPU: 0 %
LINK_UTIL GPU: 0Port: 0 From GPU to CXL: 0 %  From CXL to GPU: 0 %
LINK_UTIL GPU: 0Port: 0 From GPU to CXL: 0 %  From CXL to GPU: 0 %
LINK_UTIL GPU: 0Port: 0 From GPU to CXL: 0 %  From CXL to GPU: 0 %
LINK_UTIL GPU: 0Port: 0 From GPU to CXL: 0 %  From CXL to GPU: 0 %


120/384 thread blocks finished
Elapsed time: 0 h, 5 min
Expected remaining time: 0 h, 11 min


LINK_UTIL GPU: 0Port: 0 From GPU to CXL: 0 %  From CXL to GPU: 0 %
LINK_UTIL GPU: 0Port: 0 From GPU to CXL: 0 %  From CXL to GPU: 0 %
LINK_UTIL GPU: 0Port: 0 From GPU to CXL: 0 %  From CXL to GPU: 0 %
LINK_UTIL GPU: 0Port: 0 From GPU to CXL: 0 %  From CXL to GPU: 0 %
LINK_UTIL GPU: 0Port: 0 From GPU to CXL: 0 %  From CXL to GPU: 0 %
LINK_UTIL GPU: 0Port: 0 From GPU to CXL: 0 %  From CXL to GPU: 0 %
INITIALIZER 
INITIALIZER 
INITIALIZER 
INITIALIZER 
INITIALIZER 
INITIALIZER 
INITIALIZER 
INITIALIZER 
LINK_UTIL GPU: 0Port: 0 From GPU to CXL: 3.95 %  From CXL to GPU: 0.71 %
LINK_UTIL GPU: 0Port: 0 From GPU to CXL: 35.9 %  From CXL to GPU: 6.25 %
GPU_ramulator_0 channel 0 3723 reqs
GPU_ramulator_1 channel 0 3604 reqs
GPU_ramulator_2 channel 0 3738 reqs
GPU_ramulator_3 channel 0 3669 reqs
GPU_ramulator_4 channel 0 3662 reqs
GPU_ramulator_5 channel 0 3598 reqs
GPU_ramulator_6 channel 0 3698 reqs
GPU_ramulator_7 channel 0 3632 reqs
LINK_UTIL GPU: 0Port: 0 From GPU to CXL: 62.05 %  From CXL to GPU: 11.54 %
GPU 0 thread block = 4,26,0
LINK_UTIL GPU: 0Port: 0 From GPU to CXL: 49.5 %  From CXL to GPU: 11.78 %
CXL_0_ramulator_0 channel 0 2650 reqs
CXL_0_ramulator_0 channel 1 2706 reqs
CXL_0_ramulator_0 channel 2 2787 reqs
CXL_0_ramulator_0 channel 3 2748 reqs
CXL_0_ramulator_0 channel 4 2659 reqs
CXL_0_ramulator_0 channel 5 2664 reqs
CXL_0_ramulator_0 channel 6 2641 reqs
CXL_0_ramulator_0 channel 7 4722 reqs
GPU 0 thread block = 5,26,0
GPU 0 thread block = 0,27,0
LINK_UTIL GPU: 0Port: 0 From GPU to CXL: 2.2 %  From CXL to GPU: 0.44 %
LINK_UTIL GPU: 0Port: 0 From GPU to CXL: 0 %  From CXL to GPU: 0 %
LINK_UTIL GPU: 0Port: 0 From GPU to CXL: 0 %  From CXL to GPU: 0 %


123/384 thread blocks finished
Elapsed time: 0 h, 5 min
Expected remaining time: 0 h, 10 min


LINK_UTIL GPU: 0Port: 0 From GPU to CXL: 0 %  From CXL to GPU: 0 %
LINK_UTIL GPU: 0Port: 0 From GPU to CXL: 0 %  From CXL to GPU: 0 %
LINK_UTIL GPU: 0Port: 0 From GPU to CXL: 0 %  From CXL to GPU: 0 %
LINK_UTIL GPU: 0Port: 0 From GPU to CXL: 18.85 %  From CXL to GPU: 3.64 %
LINK_UTIL GPU: 0Port: 0 From GPU to CXL: 19.95 %  From CXL to GPU: 4.06 %
LINK_UTIL GPU: 0Port: 0 From GPU to CXL: 33 %  From CXL to GPU: 6.63 %
GPU 0 thread block = 1,27,0
LINK_UTIL GPU: 0Port: 0 From GPU to CXL: 17.4 %  From CXL to GPU: 3.51 %
LINK_UTIL GPU: 0Port: 0 From GPU to CXL: 9.8 %  From CXL to GPU: 1.92 %
GPU 0 thread block = 2,27,0
LINK_UTIL GPU: 0Port: 0 From GPU to CXL: 3.4 %  From CXL to GPU: 0.72 %
LINK_UTIL GPU: 0Port: 0 From GPU to CXL: 0 %  From CXL to GPU: 0 %
LINK_UTIL GPU: 0Port: 0 From GPU to CXL: 0 %  From CXL to GPU: 0 %
EXIT simd 0, 31 1function slot 0, finish counter 14
LINK_UTIL GPU: 0Port: 0 From GPU to CXL: 10.55 %  From CXL to GPU: 1.98 %
EXIT simd 5, 31 1function slot 0, finish counter 14
EXIT simd 3, 31 1function slot 0, finish counter 14
EXIT simd 1, 31 1function slot 0, finish counter 14
EXIT simd 2, 31 1function slot 0, finish counter 14
LINK_UTIL GPU: 0Port: 0 From GPU to CXL: 19.05 %  From CXL to GPU: 3.89 %
EXIT simd 4, 31 1function slot 0, finish counter 14


125/384 thread blocks finished
Elapsed time: 0 h, 5 min
Expected remaining time: 0 h, 10 min


CXL_0_ramulator_0 channel 0 2680 reqs
CXL_0_ramulator_0 channel 1 2597 reqs
CXL_0_ramulator_0 channel 2 2599 reqs
CXL_0_ramulator_0 channel 3 2636 reqs
CXL_0_ramulator_0 channel 4 2572 reqs
CXL_0_ramulator_0 channel 5 2675 reqs
CXL_0_ramulator_0 channel 6 2643 reqs
CXL_0_ramulator_0 channel 7 4583 reqs
GPU 0 thread block = 3,27,0
LINK_UTIL GPU: 0Port: 0 From GPU to CXL: 21.6 %  From CXL to GPU: 4.37 %
EXIT simd 6, 31 1function slot 0, finish counter 14
LINK_UTIL GPU: 0Port: 0 From GPU to CXL: 0 %  From CXL to GPU: 0 %
GPU_ramulator_0 channel 0 4262 reqs
GPU_ramulator_1 channel 0 4228 reqs
GPU_ramulator_2 channel 0 4312 reqs
GPU_ramulator_3 channel 0 4267 reqs
GPU_ramulator_4 channel 0 4220 reqs
GPU_ramulator_5 channel 0 4351 reqs
GPU_ramulator_6 channel 0 4255 reqs
GPU_ramulator_7 channel 0 4275 reqs
LINK_UTIL GPU: 0Port: 0 From GPU to CXL: 0 %  From CXL to GPU: 0 %
LINK_UTIL GPU: 0Port: 0 From GPU to CXL: 13.8 %  From CXL to GPU: 2.67 %
LINK_UTIL GPU: 0Port: 0 From GPU to CXL: 36.35 %  From CXL to GPU: 7.33 %
LINK_UTIL GPU: 0Port: 0 From GPU to CXL: 33.25 %  From CXL to GPU: 6.68 %
GPU 0 thread block = 4,27,0
LINK_UTIL GPU: 0Port: 0 From GPU to CXL: 18.7 %  From CXL to GPU: 3.71 %
GPU 0 thread block = 5,27,0
LINK_UTIL GPU: 0Port: 0 From GPU to CXL: 0.3 %  From CXL to GPU: 0.09 %
LINK_UTIL GPU: 0Port: 0 From GPU to CXL: 25.1 %  From CXL to GPU: 4.93 %
LINK_UTIL GPU: 0Port: 0 From GPU to CXL: 24.3 %  From CXL to GPU: 4.7 %
GPU 0 thread block = 0,28,0
LINK_UTIL GPU: 0Port: 0 From GPU to CXL: 35.15 %  From CXL to GPU: 6.68 %
LINK_UTIL GPU: 0Port: 0 From GPU to CXL: 75.1 %  From CXL to GPU: 11.99 %


129/384 thread blocks finished
Elapsed time: 0 h, 5 min
Expected remaining time: 0 h, 9 min


LINK_UTIL GPU: 0Port: 0 From GPU to CXL: 60.6 %  From CXL to GPU: 11.7 %
LINK_UTIL GPU: 0Port: 0 From GPU to CXL: 58.35 %  From CXL to GPU: 11.68 %
LINK_UTIL GPU: 0Port: 0 From GPU to CXL: 59.3 %  From CXL to GPU: 11.85 %
GPU 0 thread block = 1,28,0
LINK_UTIL GPU: 0Port: 0 From GPU to CXL: 40.35 %  From CXL to GPU: 11.76 %
GPU 0 thread block = 2,28,0
GPU 0 thread block = 3,28,0
CXL_0_ramulator_0 channel 0 2765 reqs
CXL_0_ramulator_0 channel 1 2703 reqs
CXL_0_ramulator_0 channel 2 2689 reqs
CXL_0_ramulator_0 channel 3 2688 reqs
CXL_0_ramulator_0 channel 4 2716 reqs
CXL_0_ramulator_0 channel 5 2701 reqs
CXL_0_ramulator_0 channel 6 2654 reqs
CXL_0_ramulator_0 channel 7 4722 reqs
GPU 0 thread block = 4,28,0
GPU 0 thread block = 5,28,0
LINK_UTIL GPU: 0Port: 0 From GPU to CXL: 37.05 %  From CXL to GPU: 7.54 %
GPU 0 thread block = 0,29,0
LINK_UTIL GPU: 0Port: 0 From GPU to CXL: 30.1 %  From CXL to GPU: 6.22 %
INITIALIZER 
INITIALIZER 
INITIALIZER 
INITIALIZER 
INITIALIZER 
INITIALIZER 
INITIALIZER 
INITIALIZER 
GPU 0 thread block = 1,29,0
LINK_UTIL GPU: 0Port: 0 From GPU to CXL: 73.85 %  From CXL to GPU: 10.86 %
LINK_UTIL GPU: 0Port: 0 From GPU to CXL: 60.4 %  From CXL to GPU: 11.99 %
LINK_UTIL GPU: 0Port: 0 From GPU to CXL: 59.75 %  From CXL to GPU: 11.93 %
LINK_UTIL GPU: 0Port: 0 From GPU to CXL: 59.7 %  From CXL to GPU: 11.96 %
GPU_ramulator_0 channel 0 4128 reqs
GPU_ramulator_1 channel 0 3887 reqs
GPU_ramulator_2 channel 0 3886 reqs
GPU_ramulator_3 channel 0 4020 reqs
GPU_ramulator_4 channel 0 3928 reqs
GPU_ramulator_5 channel 0 3897 reqs
GPU_ramulator_6 channel 0 3831 reqs
GPU_ramulator_7 channel 0 4031 reqs
LINK_UTIL GPU: 0Port: 0 From GPU to CXL: 59.2 %  From CXL to GPU: 11.81 %
LINK_UTIL GPU: 0Port: 0 From GPU to CXL: 60.25 %  From CXL to GPU: 12.05 %
GPU 0 thread block = 2,29,0
LINK_UTIL GPU: 0Port: 0 From GPU to CXL: 59.45 %  From CXL to GPU: 11.9 %


137/384 thread blocks finished
Elapsed time: 0 h, 6 min
Expected remaining time: 0 h, 10 min


LINK_UTIL GPU: 0Port: 0 From GPU to CXL: 59.65 %  From CXL to GPU: 11.93 %
LINK_UTIL GPU: 0Port: 0 From GPU to CXL: 58.1 %  From CXL to GPU: 11.62 %
LINK_UTIL GPU: 0Port: 0 From GPU to CXL: 59.85 %  From CXL to GPU: 11.97 %
LINK_UTIL GPU: 0Port: 0 From GPU to CXL: 60.25 %  From CXL to GPU: 12.05 %
GPU 0 thread block = 3,29,0
LINK_UTIL GPU: 0Port: 0 From GPU to CXL: 59.85 %  From CXL to GPU: 11.96 %
GPU 0 thread block = 4,29,0
GPU 0 thread block = 5,29,0
LINK_UTIL GPU: 0Port: 0 From GPU to CXL: 59.25 %  From CXL to GPU: 11.87 %
LINK_UTIL GPU: 0Port: 0 From GPU to CXL: 59.65 %  From CXL to GPU: 11.93 %
GPU 0 thread block = 0,30,0
CXL_0_ramulator_0 channel 0 2580 reqs
CXL_0_ramulator_0 channel 1 2591 reqs
CXL_0_ramulator_0 channel 2 2547 reqs
CXL_0_ramulator_0 channel 3 2573 reqs
CXL_0_ramulator_0 channel 4 2630 reqs
CXL_0_ramulator_0 channel 5 2610 reqs
CXL_0_ramulator_0 channel 6 2687 reqs
CXL_0_ramulator_0 channel 7 4583 reqs
GPU 0 thread block = 1,30,0
LINK_UTIL GPU: 0Port: 0 From GPU to CXL: 59.2 %  From CXL to GPU: 11.83 %
GPU 0 thread block = 2,30,0
LINK_UTIL GPU: 0Port: 0 From GPU to CXL: 59.65 %  From CXL to GPU: 11.94 %
GPU 0 thread block = 3,30,0
GPU 0 thread block = 4,30,0
LINK_UTIL GPU: 0Port: 0 From GPU to CXL: 59.1 %  From CXL to GPU: 11.81 %
GPU 0 thread block = 5,30,0
LINK_UTIL GPU: 0Port: 0 From GPU to CXL: 59.45 %  From CXL to GPU: 11.9 %
SIMD 5 FINALIZER 3072/3072 
SIMD 2 FINALIZER 3072/3072 
SIMD 1 FINALIZER 3072/3072 
SIMD 6 FINALIZER 3072/3072 
SIMD 0 FINALIZER 3072/3072 
LINK_UTIL GPU: 0Port: 0 From GPU to CXL: 60.85 %  From CXL to GPU: 12.16 %
SIMD 3 FINALIZER 3072/3072 
SIMD 4 FINALIZER 3072/3072 
GPU 0 thread block = 0,31,0
GPU 0 thread block = 1,31,0
SIMD 7 FINALIZER 3072/3072 
GPU 0 thread block = 2,31,0
GPU 0 thread block = 3,31,0
GPU 0 thread block = 4,31,0
GPU 0 thread block = 5,31,0
LINK_UTIL GPU: 0Port: 0 From GPU to CXL: 45.55 %  From CXL to GPU: 11.69 %
GPU 0 thread block = 0,32,0
GPU 0 thread block = 1,32,0
GPU 0 thread block = 2,32,0
GPU 0 thread block = 3,32,0
GPU 0 thread block = 4,32,0
GPU 0 thread block = 5,32,0
GPU 0 thread block = 0,33,0
GPU 0 thread block = 1,33,0


160/384 thread blocks finished
Elapsed time: 0 h, 6 min
Expected remaining time: 0 h, 8 min


LINK_UTIL GPU: 0Port: 0 From GPU to CXL: 0 %  From CXL to GPU: 1.47 %
LINK_UTIL GPU: 0Port: 0 From GPU to CXL: 0 %  From CXL to GPU: 0 %
LINK_UTIL GPU: 0Port: 0 From GPU to CXL: 0 %  From CXL to GPU: 0 %
LINK_UTIL GPU: 0Port: 0 From GPU to CXL: 0 %  From CXL to GPU: 0 %
GPU_ramulator_0 channel 0 3411 reqs
GPU_ramulator_1 channel 0 3435 reqs
GPU_ramulator_2 channel 0 3273 reqs
GPU_ramulator_3 channel 0 3442 reqs
GPU_ramulator_4 channel 0 3323 reqs
GPU_ramulator_5 channel 0 3481 reqs
GPU_ramulator_6 channel 0 3327 reqs
GPU_ramulator_7 channel 0 3279 reqs
LINK_UTIL GPU: 0Port: 0 From GPU to CXL: 0 %  From CXL to GPU: 0 %
LINK_UTIL GPU: 0Port: 0 From GPU to CXL: 0 %  From CXL to GPU: 0 %
LINK_UTIL GPU: 0Port: 0 From GPU to CXL: 0 %  From CXL to GPU: 0 %
LINK_UTIL GPU: 0Port: 0 From GPU to CXL: 3.8 %  From CXL to GPU: 0.59 %
LINK_UTIL GPU: 0Port: 0 From GPU to CXL: 47.4 %  From CXL to GPU: 9.65 %
LINK_UTIL GPU: 0Port: 0 From GPU to CXL: 33 %  From CXL to GPU: 6.46 %
CXL_0_ramulator_0 channel 0 2723 reqs
CXL_0_ramulator_0 channel 1 2662 reqs
CXL_0_ramulator_0 channel 2 2714 reqs
CXL_0_ramulator_0 channel 3 2665 reqs
CXL_0_ramulator_0 channel 4 2726 reqs
CXL_0_ramulator_0 channel 5 2708 reqs
CXL_0_ramulator_0 channel 6 2716 reqs
CXL_0_ramulator_0 channel 7 4722 reqs
GPU 0 thread block = 2,33,0
LINK_UTIL GPU: 0Port: 0 From GPU to CXL: 32.3 %  From CXL to GPU: 6.4 %
GPU 0 thread block = 3,33,0
LINK_UTIL GPU: 0Port: 0 From GPU to CXL: 20.7 %  From CXL to GPU: 4.27 %
LINK_UTIL GPU: 0Port: 0 From GPU to CXL: 6.2 %  From CXL to GPU: 1.31 %


162/384 thread blocks finished
Elapsed time: 0 h, 6 min
Expected remaining time: 0 h, 8 min


GPU 0 thread block = 4,33,0
LINK_UTIL GPU: 0Port: 0 From GPU to CXL: 10.2 %  From CXL to GPU: 2.04 %
LINK_UTIL GPU: 0Port: 0 From GPU to CXL: 0 %  From CXL to GPU: 0 %
LINK_UTIL GPU: 0Port: 0 From GPU to CXL: 9.9 %  From CXL to GPU: 1.86 %
LINK_UTIL GPU: 0Port: 0 From GPU to CXL: 16.5 %  From CXL to GPU: 3.42 %
LINK_UTIL GPU: 0Port: 0 From GPU to CXL: 20.4 %  From CXL to GPU: 4.08 %
GPU 0 thread block = 5,33,0
LINK_UTIL GPU: 0Port: 0 From GPU to CXL: 4.4 %  From CXL to GPU: 0.88 %
LINK_UTIL GPU: 0Port: 0 From GPU to CXL: 0 %  From CXL to GPU: 0 %
LINK_UTIL GPU: 0Port: 0 From GPU to CXL: 0 %  From CXL to GPU: 0 %
LINK_UTIL GPU: 0Port: 0 From GPU to CXL: 0 %  From CXL to GPU: 0 %
LINK_UTIL GPU: 0Port: 0 From GPU to CXL: 0 %  From CXL to GPU: 0 %
LINK_UTIL GPU: 0Port: 0 From GPU to CXL: 0 %  From CXL to GPU: 0 %
GPU_ramulator_0 channel 0 3873 reqs
GPU_ramulator_1 channel 0 3775 reqs
GPU_ramulator_2 channel 0 3960 reqs
GPU_ramulator_3 channel 0 3959 reqs
GPU_ramulator_4 channel 0 3907 reqs
GPU_ramulator_5 channel 0 3878 reqs
GPU_ramulator_6 channel 0 4090 reqs
GPU_ramulator_7 channel 0 3860 reqs
LINK_UTIL GPU: 0Port: 0 From GPU to CXL: 0 %  From CXL to GPU: 0 %
LINK_UTIL GPU: 0Port: 0 From GPU to CXL: 0 %  From CXL to GPU: 0 %


164/384 thread blocks finished
Elapsed time: 0 h, 6 min
Expected remaining time: 0 h, 8 min


CXL_0_ramulator_0 channel 0 2621 reqs
CXL_0_ramulator_0 channel 1 2609 reqs
CXL_0_ramulator_0 channel 2 2612 reqs
CXL_0_ramulator_0 channel 3 2632 reqs
CXL_0_ramulator_0 channel 4 2623 reqs
CXL_0_ramulator_0 channel 5 2674 reqs
CXL_0_ramulator_0 channel 6 2582 reqs
CXL_0_ramulator_0 channel 7 4583 reqs
LINK_UTIL GPU: 0Port: 0 From GPU to CXL: 0 %  From CXL to GPU: 0 %
LINK_UTIL GPU: 0Port: 0 From GPU to CXL: 0 %  From CXL to GPU: 0 %
LINK_UTIL GPU: 0Port: 0 From GPU to CXL: 12.8 %  From CXL to GPU: 2.56 %
LINK_UTIL GPU: 0Port: 0 From GPU to CXL: 33 %  From CXL to GPU: 6.56 %
LINK_UTIL GPU: 0Port: 0 From GPU to CXL: 27.7 %  From CXL to GPU: 5.49 %
GPU 0 thread block = 0,34,0
LINK_UTIL GPU: 0Port: 0 From GPU to CXL: 26.15 %  From CXL to GPU: 5.18 %
LINK_UTIL GPU: 0Port: 0 From GPU to CXL: 28.4 %  From CXL to GPU: 5.73 %
GPU 0 thread block = 1,34,0
LINK_UTIL GPU: 0Port: 0 From GPU to CXL: 13.55 %  From CXL to GPU: 2.8 %
LINK_UTIL GPU: 0Port: 0 From GPU to CXL: 12 %  From CXL to GPU: 2.37 %
GPU 0 thread block = 2,34,0
LINK_UTIL GPU: 0Port: 0 From GPU to CXL: 0 %  From CXL to GPU: 0.03 %
LINK_UTIL GPU: 0Port: 0 From GPU to CXL: 23.15 %  From CXL to GPU: 4.49 %
LINK_UTIL GPU: 0Port: 0 From GPU to CXL: 15.7 %  From CXL to GPU: 3.27 %
SIMD 0 FINALIZER 3072/3072 
SIMD 1 FINALIZER 3072/3072 
SIMD 2 FINALIZER 3072/3072 


167/384 thread blocks finished
Elapsed time: 0 h, 7 min
Expected remaining time: 0 h, 9 min


SIMD 3 FINALIZER 3072/3072 
LINK_UTIL GPU: 0Port: 0 From GPU to CXL: 10.35 %  From CXL to GPU: 2.08 %
SIMD 4 FINALIZER 3072/3072 
SIMD 5 FINALIZER 3072/3072 
SIMD 6 FINALIZER 3072/3072 
SIMD 7 FINALIZER 3072/3072 
GPU 0 thread block = 3,34,0
INITIALIZER 
INITIALIZER 
INITIALIZER 
INITIALIZER 
INITIALIZER 
INITIALIZER 
INITIALIZER 
INITIALIZER 
LINK_UTIL GPU: 0Port: 0 From GPU to CXL: 14.8 %  From CXL to GPU: 2.96 %
LINK_UTIL GPU: 0Port: 0 From GPU to CXL: 21.55 %  From CXL to GPU: 4.19 %
LINK_UTIL GPU: 0Port: 0 From GPU to CXL: 8.85 %  From CXL to GPU: 1.81 %
CXL_0_ramulator_0 channel 0 2627 reqs
CXL_0_ramulator_0 channel 1 2628 reqs
CXL_0_ramulator_0 channel 2 2592 reqs
CXL_0_ramulator_0 channel 3 2644 reqs
CXL_0_ramulator_0 channel 4 2578 reqs
CXL_0_ramulator_0 channel 5 2594 reqs
CXL_0_ramulator_0 channel 6 2646 reqs
CXL_0_ramulator_0 channel 7 4583 reqs
LINK_UTIL GPU: 0Port: 0 From GPU to CXL: 23.8 %  From CXL to GPU: 4.75 %
GPU 0 thread block = 4,34,0
LINK_UTIL GPU: 0Port: 0 From GPU to CXL: 24.2 %  From CXL to GPU: 4.86 %
GPU 0 thread block = 5,34,0
GPU_ramulator_0 channel 0 3997 reqs
GPU_ramulator_1 channel 0 4040 reqs
GPU_ramulator_2 channel 0 4175 reqs
GPU_ramulator_3 channel 0 4103 reqs
GPU_ramulator_4 channel 0 4095 reqs
GPU_ramulator_5 channel 0 4200 reqs
GPU_ramulator_6 channel 0 3918 reqs
GPU_ramulator_7 channel 0 4014 reqs
LINK_UTIL GPU: 0Port: 0 From GPU to CXL: 11.2 %  From CXL to GPU: 2.31 %
LINK_UTIL GPU: 0Port: 0 From GPU to CXL: 18.45 %  From CXL to GPU: 3.6 %
LINK_UTIL GPU: 0Port: 0 From GPU to CXL: 21.2 %  From CXL to GPU: 4.2 %
LINK_UTIL GPU: 0Port: 0 From GPU to CXL: 33.55 %  From CXL to GPU: 6.7 %
GPU 0 thread block = 0,35,0
LINK_UTIL GPU: 0Port: 0 From GPU to CXL: 73.75 %  From CXL to GPU: 10.93 %
LINK_UTIL GPU: 0Port: 0 From GPU to CXL: 58.65 %  From CXL to GPU: 11.64 %
LINK_UTIL GPU: 0Port: 0 From GPU to CXL: 59.2 %  From CXL to GPU: 11.84 %


171/384 thread blocks finished
Elapsed time: 0 h, 7 min
Expected remaining time: 0 h, 8 min


GPU 0 thread block = 1,35,0
LINK_UTIL GPU: 0Port: 0 From GPU to CXL: 33.9 %  From CXL to GPU: 10.71 %
GPU 0 thread block = 2,35,0
GPU 0 thread block = 3,35,0
GPU 0 thread block = 4,35,0
LINK_UTIL GPU: 0Port: 0 From GPU to CXL: 32.2 %  From CXL to GPU: 6.52 %
GPU 0 thread block = 5,35,0
LINK_UTIL GPU: 0Port: 0 From GPU to CXL: 17.1 %  From CXL to GPU: 3.46 %
LINK_UTIL GPU: 0Port: 0 From GPU to CXL: 32.25 %  From CXL to GPU: 6.39 %
GPU 0 thread block = 0,36,0
LINK_UTIL GPU: 0Port: 0 From GPU to CXL: 47.95 %  From CXL to GPU: 9.17 %
INITIALIZER 
INITIALIZER 
INITIALIZER 
INITIALIZER 
INITIALIZER 
INITIALIZER 
INITIALIZER 
INITIALIZER 
GPU 0 thread block = 1,36,0
LINK_UTIL GPU: 0Port: 0 From GPU to CXL: 49.85 %  From CXL to GPU: 9.56 %
LINK_UTIL GPU: 0Port: 0 From GPU to CXL: 74.6 %  From CXL to GPU: 11.83 %
CXL_0_ramulator_0 channel 0 2771 reqs
CXL_0_ramulator_0 channel 1 2710 reqs
CXL_0_ramulator_0 channel 2 2680 reqs
CXL_0_ramulator_0 channel 3 2676 reqs
CXL_0_ramulator_0 channel 4 2686 reqs
CXL_0_ramulator_0 channel 5 2672 reqs
CXL_0_ramulator_0 channel 6 2734 reqs
CXL_0_ramulator_0 channel 7 4722 reqs
LINK_UTIL GPU: 0Port: 0 From GPU to CXL: 59.45 %  From CXL to GPU: 11.82 %
LINK_UTIL GPU: 0Port: 0 From GPU to CXL: 59.35 %  From CXL to GPU: 11.89 %
LINK_UTIL GPU: 0Port: 0 From GPU to CXL: 60.15 %  From CXL to GPU: 12.02 %
LINK_UTIL GPU: 0Port: 0 From GPU to CXL: 59.2 %  From CXL to GPU: 11.85 %
LINK_UTIL GPU: 0Port: 0 From GPU to CXL: 59.5 %  From CXL to GPU: 11.88 %
LINK_UTIL GPU: 0Port: 0 From GPU to CXL: 59.25 %  From CXL to GPU: 11.85 %
GPU 0 thread block = 2,36,0
GPU 0 thread block = 3,36,0


180/384 thread blocks finished
Elapsed time: 0 h, 7 min
Expected remaining time: 0 h, 7 min


GPU 0 thread block = 4,36,0
LINK_UTIL GPU: 0Port: 0 From GPU to CXL: 59.05 %  From CXL to GPU: 11.81 %
GPU_ramulator_0 channel 0 3768 reqs
GPU_ramulator_1 channel 0 3814 reqs
GPU_ramulator_2 channel 0 3725 reqs
GPU_ramulator_3 channel 0 3732 reqs
GPU_ramulator_4 channel 0 3606 reqs
GPU_ramulator_5 channel 0 3692 reqs
GPU_ramulator_6 channel 0 3777 reqs
GPU_ramulator_7 channel 0 3889 reqs
GPU 0 thread block = 5,36,0
LINK_UTIL GPU: 0Port: 0 From GPU to CXL: 60.7 %  From CXL to GPU: 12.15 %
GPU 0 thread block = 0,37,0
LINK_UTIL GPU: 0Port: 0 From GPU to CXL: 61.4 %  From CXL to GPU: 12.27 %
EXIT simd 6, 31 1function slot 0, finish counter 13
EXIT simd 0, 31 1function slot 0, finish counter 13
LINK_UTIL GPU: 0Port: 0 From GPU to CXL: 60.55 %  From CXL to GPU: 12.12 %
LINK_UTIL GPU: 0Port: 0 From GPU to CXL: 58.7 %  From CXL to GPU: 11.75 %
EXIT simd 1, 31 1function slot 0, finish counter 13
LINK_UTIL GPU: 0Port: 0 From GPU to CXL: 59.95 %  From CXL to GPU: 11.97 %
GPU 0 thread block = 1,37,0
GPU 0 thread block = 2,37,0
EXIT simd 2, 31 1function slot 0, finish counter 13
EXIT simd 4, 31 1function slot 0, finish counter 13
LINK_UTIL GPU: 0Port: 0 From GPU to CXL: 59.45 %  From CXL to GPU: 11.88 %
EXIT simd 5, 31 1function slot 0, finish counter 13
GPU 0 thread block = 3,37,0
EXIT simd 3, 31 1function slot 0, finish counter 13
LINK_UTIL GPU: 0Port: 0 From GPU to CXL: 58.3 %  From CXL to GPU: 11.67 %
GPU 0 thread block = 4,37,0
LINK_UTIL GPU: 0Port: 0 From GPU to CXL: 60 %  From CXL to GPU: 11.99 %
GPU 0 thread block = 5,37,0
SIMD 1 FINALIZER 3072/3072 
LINK_UTIL GPU: 0Port: 0 From GPU to CXL: 60.2 %  From CXL to GPU: 12.05 %
CXL_0_ramulator_0 channel 0 2599 reqs
CXL_0_ramulator_0 channel 1 2650 reqs
CXL_0_ramulator_0 channel 2 2618 reqs
CXL_0_ramulator_0 channel 3 2659 reqs
CXL_0_ramulator_0 channel 4 2621 reqs
CXL_0_ramulator_0 channel 5 2620 reqs
CXL_0_ramulator_0 channel 6 2554 reqs
CXL_0_ramulator_0 channel 7 4583 reqs
GPU 0 thread block = 0,38,0
SIMD 0 FINALIZER 3072/3072 
SIMD 2 FINALIZER 3072/3072 
SIMD 3 FINALIZER 3072/3072 
SIMD 4 FINALIZER 3072/3072 
SIMD 5 FINALIZER 3072/3072 
SIMD 6 FINALIZER 3072/3072 
SIMD 7 FINALIZER 3072/3072 
LINK_UTIL GPU: 0Port: 0 From GPU to CXL: 59.65 %  From CXL to GPU: 11.92 %
GPU 0 thread block = 1,38,0
GPU 0 thread block = 2,38,0
GPU 0 thread block = 3,38,0
GPU 0 thread block = 4,38,0
GPU 0 thread block = 5,38,0
LINK_UTIL GPU: 0Port: 0 From GPU to CXL: 48.6 %  From CXL to GPU: 11.75 %
GPU 0 thread block = 0,39,0
GPU 0 thread block = 1,39,0
GPU 0 thread block = 2,39,0
GPU 0 thread block = 3,39,0
GPU 0 thread block = 4,39,0
GPU 0 thread block = 5,39,0
LINK_UTIL GPU: 0Port: 0 From GPU to CXL: 26.4 %  From CXL to GPU: 7.23 %


200/384 thread blocks finished
Elapsed time: 0 h, 7 min
Expected remaining time: 0 h, 6 min


LINK_UTIL GPU: 0Port: 0 From GPU to CXL: 25.9 %  From CXL to GPU: 5.24 %
GPU 0 thread block = 0,40,0
GPU 0 thread block = 1,40,0
LINK_UTIL GPU: 0Port: 0 From GPU to CXL: 13.8 %  From CXL to GPU: 2.69 %
GPU 0 thread block = 2,40,0
LINK_UTIL GPU: 0Port: 0 From GPU to CXL: 7.4 %  From CXL to GPU: 1.57 %
LINK_UTIL GPU: 0Port: 0 From GPU to CXL: 0 %  From CXL to GPU: 0 %
LINK_UTIL GPU: 0Port: 0 From GPU to CXL: 0 %  From CXL to GPU: 0 %
LINK_UTIL GPU: 0Port: 0 From GPU to CXL: 11.05 %  From CXL to GPU: 2.12 %
EXIT simd 0, 31 1function slot 0, finish counter 12
LINK_UTIL GPU: 0Port: 0 From GPU to CXL: 16.15 %  From CXL to GPU: 3.32 %
EXIT simd 5, 31 1function slot 0, finish counter 12
EXIT simd 1, 31 1function slot 0, finish counter 12
EXIT simd 3, 31 1function slot 0, finish counter 12
LINK_UTIL GPU: 0Port: 0 From GPU to CXL: 12 %  From CXL to GPU: 2.4 %
GPU_ramulator_0 channel 0 3566 reqs
GPU_ramulator_1 channel 0 3480 reqs
GPU_ramulator_2 channel 0 3361 reqs
GPU_ramulator_3 channel 0 3530 reqs
GPU_ramulator_4 channel 0 3636 reqs
GPU_ramulator_5 channel 0 3573 reqs
GPU_ramulator_6 channel 0 3644 reqs
GPU_ramulator_7 channel 0 3709 reqs
EXIT simd 4, 31 1function slot 0, finish counter 12
LINK_UTIL GPU: 0Port: 0 From GPU to CXL: 10.7 %  From CXL to GPU: 2.1 %
GPU 0 thread block = 3,40,0
EXIT simd 2, 31 1function slot 0, finish counter 12
EXIT simd 6, 31 1function slot 0, finish counter 12
LINK_UTIL GPU: 0Port: 0 From GPU to CXL: 1.3 %  From CXL to GPU: 0.3 %
LINK_UTIL GPU: 0Port: 0 From GPU to CXL: 0 %  From CXL to GPU: 0 %
LINK_UTIL GPU: 0Port: 0 From GPU to CXL: 0 %  From CXL to GPU: 0 %
LINK_UTIL GPU: 0Port: 0 From GPU to CXL: 0 %  From CXL to GPU: 0 %


204/384 thread blocks finished
Elapsed time: 0 h, 8 min
Expected remaining time: 0 h, 7 min


CXL_0_ramulator_0 channel 0 2698 reqs
CXL_0_ramulator_0 channel 1 2758 reqs
CXL_0_ramulator_0 channel 2 2634 reqs
CXL_0_ramulator_0 channel 3 2683 reqs
CXL_0_ramulator_0 channel 4 2713 reqs
CXL_0_ramulator_0 channel 5 2804 reqs
CXL_0_ramulator_0 channel 6 2688 reqs
CXL_0_ramulator_0 channel 7 4722 reqs
LINK_UTIL GPU: 0Port: 0 From GPU to CXL: 0 %  From CXL to GPU: 0 %
LINK_UTIL GPU: 0Port: 0 From GPU to CXL: 0 %  From CXL to GPU: 0 %
LINK_UTIL GPU: 0Port: 0 From GPU to CXL: 0 %  From CXL to GPU: 0 %
LINK_UTIL GPU: 0Port: 0 From GPU to CXL: 12.8 %  From CXL to GPU: 2.56 %
LINK_UTIL GPU: 0Port: 0 From GPU to CXL: 22.85 %  From CXL to GPU: 4.48 %
LINK_UTIL GPU: 0Port: 0 From GPU to CXL: 8.85 %  From CXL to GPU: 1.86 %
GPU 0 thread block = 4,40,0
[...]
GPU_ramulator_1 channel 0 0 reqs
GPU_ramulator_2 channel 0 0 reqs
GPU_ramulator_3 channel 0 0 reqs
GPU_ramulator_4 channel 0 0 reqs
GPU_ramulator_5 channel 0 0 reqs
GPU_ramulator_6 channel 0 0 reqs
GPU_ramulator_7 channel 0 0 reqs
LINK_UTIL GPU: 0Port: 0 From GPU to CXL: 0 %  From CXL to GPU: 0 %


384/0 thread blocks finished
Elapsed time: 0 h, 20 min
Expected remaining time: 0 h, -20 min


LINK_UTIL GPU: 0Port: 0 From GPU to CXL: 0 %  From CXL to GPU: 0 %
LINK_UTIL GPU: 0Port: 0 From GPU to CXL: 0 %  From CXL to GPU: 0 %
LINK_UTIL GPU: 0Port: 0 From GPU to CXL: 0 %  From CXL to GPU: 0 %
LINK_UTIL GPU: 0Port: 0 From GPU to CXL: 0 %  From CXL to GPU: 0 %
LINK_UTIL GPU: 0Port: 0 From GPU to CXL: 0 %  From CXL to GPU: 0 %
LINK_UTIL GPU: 0Port: 0 From GPU to CXL: 0 %  From CXL to GPU: 0 %
LINK_UTIL GPU: 0Port: 0 From GPU to CXL: 0 %  From CXL to GPU: 0 %
LINK_UTIL GPU: 0Port: 0 From GPU to CXL: 0 %  From CXL to GPU: 0 %
LINK_UTIL GPU: 0Port: 0 From GPU to CXL: 0 %  From CXL to GPU: 0 %
LINK_UTIL GPU: 0Port: 0 From GPU to CXL: 0 %  From CXL to GPU: 0 %
CXL_0_ramulator_0 channel 0 0 reqs
CXL_0_ramulator_0 channel 1 0 reqs
CXL_0_ramulator_0 channel 2 0 reqs
CXL_0_ramulator_0 channel 3 0 reqs
CXL_0_ramulator_0 channel 4 0 reqs
CXL_0_ramulator_0 channel 5 0 reqs
CXL_0_ramulator_0 channel 6 0 reqs
CXL_0_ramulator_0 channel 7 5226 reqs
LINK_UTIL GPU: 0Port: 0 From GPU to CXL: 0 %  From CXL to GPU: 0 %
LINK_UTIL GPU: 0Port: 0 From GPU to CXL: 0 %  From CXL to GPU: 0 %
LINK_UTIL GPU: 0Port: 0 From GPU to CXL: 0 %  From CXL to GPU: 0 %


384/0 thread blocks finished
Elapsed time: 0 h, 20 min
Expected remaining time: 0 h, -20 min


LINK_UTIL GPU: 0Port: 0 From GPU to CXL: 0 %  From CXL to GPU: 0 %
LINK_UTIL GPU: 0Port: 0 From GPU to CXL: 0 %  From CXL to GPU: 0 %
LINK_UTIL GPU: 0Port: 0 From GPU to CXL: 0 %  From CXL to GPU: 0 %
EXIT simd 7, 31 1function slot 0, finish counter 4
LINK_UTIL GPU: 0Port: 0 From GPU to CXL: 0 %  From CXL to GPU: 0 %
LINK_UTIL GPU: 0Port: 0 From GPU to CXL: 0 %  From CXL to GPU: 0 %
LINK_UTIL GPU: 0Port: 0 From GPU to CXL: 0 %  From CXL to GPU: 0 %
GPU_ramulator_0 channel 0 0 reqs
GPU_ramulator_1 channel 0 0 reqs
GPU_ramulator_2 channel 0 0 reqs
GPU_ramulator_3 channel 0 0 reqs
GPU_ramulator_4 channel 0 0 reqs
GPU_ramulator_5 channel 0 0 reqs
GPU_ramulator_6 channel 0 0 reqs
GPU_ramulator_7 channel 0 0 reqs
LINK_UTIL GPU: 0Port: 0 From GPU to CXL: 0 %  From CXL to GPU: 0 %
LINK_UTIL GPU: 0Port: 0 From GPU to CXL: 0 %  From CXL to GPU: 0 %
LINK_UTIL GPU: 0Port: 0 From GPU to CXL: 0 %  From CXL to GPU: 0 %
LINK_UTIL GPU: 0Port: 0 From GPU to CXL: 0 %  From CXL to GPU: 0 %
LINK_UTIL GPU: 0Port: 0 From GPU to CXL: 0 %  From CXL to GPU: 0 %
LINK_UTIL GPU: 0Port: 0 From GPU to CXL: 0 %  From CXL to GPU: 0 %


384/0 thread blocks finished
Elapsed time: 0 h, 20 min
Expected remaining time: 0 h, -20 min


LINK_UTIL GPU: 0Port: 0 From GPU to CXL: 0 %  From CXL to GPU: 0 %
CXL_0_ramulator_0 channel 0 0 reqs
CXL_0_ramulator_0 channel 1 0 reqs
CXL_0_ramulator_0 channel 2 0 reqs
CXL_0_ramulator_0 channel 3 0 reqs
CXL_0_ramulator_0 channel 4 0 reqs
CXL_0_ramulator_0 channel 5 0 reqs
CXL_0_ramulator_0 channel 6 0 reqs
CXL_0_ramulator_0 channel 7 5055 reqs
LINK_UTIL GPU: 0Port: 0 From GPU to CXL: 0 %  From CXL to GPU: 0 %
LINK_UTIL GPU: 0Port: 0 From GPU to CXL: 0 %  From CXL to GPU: 0 %
LINK_UTIL GPU: 0Port: 0 From GPU to CXL: 0 %  From CXL to GPU: 0 %
LINK_UTIL GPU: 0Port: 0 From GPU to CXL: 0 %  From CXL to GPU: 0 %
LINK_UTIL GPU: 0Port: 0 From GPU to CXL: 0 %  From CXL to GPU: 0 %
LINK_UTIL GPU: 0Port: 0 From GPU to CXL: 0 %  From CXL to GPU: 0 %
LINK_UTIL GPU: 0Port: 0 From GPU to CXL: 0 %  From CXL to GPU: 0 %
LINK_UTIL GPU: 0Port: 0 From GPU to CXL: 0 %  From CXL to GPU: 0 %
LINK_UTIL GPU: 0Port: 0 From GPU to CXL: 0 %  From CXL to GPU: 0 %
LINK_UTIL GPU: 0Port: 0 From GPU to CXL: 0 %  From CXL to GPU: 0 %
LINK_UTIL GPU: 0Port: 0 From GPU to CXL: 0 %  From CXL to GPU: 0 %
LINK_UTIL GPU: 0Port: 0 From GPU to CXL: 0 %  From CXL to GPU: 0 %


384/0 thread blocks finished
Elapsed time: 0 h, 21 min
Expected remaining time: 0 h, -21 min


LINK_UTIL GPU: 0Port: 0 From GPU to CXL: 0 %  From CXL to GPU: 0 %
GPU_ramulator_0 channel 0 0 reqs
GPU_ramulator_1 channel 0 0 reqs
GPU_ramulator_2 channel 0 0 reqs
GPU_ramulator_3 channel 0 0 reqs
GPU_ramulator_4 channel 0 0 reqs
GPU_ramulator_5 channel 0 0 reqs
GPU_ramulator_6 channel 0 0 reqs
GPU_ramulator_7 channel 0 0 reqs
LINK_UTIL GPU: 0Port: 0 From GPU to CXL: 0 %  From CXL to GPU: 0 %
LINK_UTIL GPU: 0Port: 0 From GPU to CXL: 0 %  From CXL to GPU: 0 %
LINK_UTIL GPU: 0Port: 0 From GPU to CXL: 0 %  From CXL to GPU: 0 %
CXL_0_ramulator_0 channel 0 0 reqs
CXL_0_ramulator_0 channel 1 0 reqs
CXL_0_ramulator_0 channel 2 0 reqs
CXL_0_ramulator_0 channel 3 0 reqs
CXL_0_ramulator_0 channel 4 0 reqs
CXL_0_ramulator_0 channel 5 0 reqs
CXL_0_ramulator_0 channel 6 0 reqs
CXL_0_ramulator_0 channel 7 5443 reqs
LINK_UTIL GPU: 0Port: 0 From GPU to CXL: 0 %  From CXL to GPU: 0 %
LINK_UTIL GPU: 0Port: 0 From GPU to CXL: 0 %  From CXL to GPU: 0 %
LINK_UTIL GPU: 0Port: 0 From GPU to CXL: 0 %  From CXL to GPU: 0 %
LINK_UTIL GPU: 0Port: 0 From GPU to CXL: 0 %  From CXL to GPU: 0 %
LINK_UTIL GPU: 0Port: 0 From GPU to CXL: 0 %  From CXL to GPU: 0 %
LINK_UTIL GPU: 0Port: 0 From GPU to CXL: 0 %  From CXL to GPU: 0 %
LINK_UTIL GPU: 0Port: 0 From GPU to CXL: 0 %  From CXL to GPU: 0 %
LINK_UTIL GPU: 0Port: 0 From GPU to CXL: 0 %  From CXL to GPU: 0 %
LINK_UTIL GPU: 0Port: 0 From GPU to CXL: 0 %  From CXL to GPU: 0 %


384/0 thread blocks finished
Elapsed time: 0 h, 21 min
Expected remaining time: 0 h, -21 min


LINK_UTIL GPU: 0Port: 0 From GPU to CXL: 0 %  From CXL to GPU: 0 %
LINK_UTIL GPU: 0Port: 0 From GPU to CXL: 0 %  From CXL to GPU: 0 %
LINK_UTIL GPU: 0Port: 0 From GPU to CXL: 0 %  From CXL to GPU: 0 %
LINK_UTIL GPU: 0Port: 0 From GPU to CXL: 0 %  From CXL to GPU: 0 %
LINK_UTIL GPU: 0Port: 0 From GPU to CXL: 0 %  From CXL to GPU: 0 %
LINK_UTIL GPU: 0Port: 0 From GPU to CXL: 0 %  From CXL to GPU: 0 %
LINK_UTIL GPU: 0Port: 0 From GPU to CXL: 0 %  From CXL to GPU: 0 %
CXL_0_ramulator_0 channel 0 0 reqs
CXL_0_ramulator_0 channel 1 0 reqs
CXL_0_ramulator_0 channel 2 0 reqs
CXL_0_ramulator_0 channel 3 0 reqs
CXL_0_ramulator_0 channel 4 0 reqs
CXL_0_ramulator_0 channel 5 0 reqs
CXL_0_ramulator_0 channel 6 0 reqs
CXL_0_ramulator_0 channel 7 5673 reqs
LINK_UTIL GPU: 0Port: 0 From GPU to CXL: 0 %  From CXL to GPU: 0 %
GPU_ramulator_0 channel 0 0 reqs
GPU_ramulator_1 channel 0 0 reqs
GPU_ramulator_2 channel 0 0 reqs
GPU_ramulator_3 channel 0 0 reqs
GPU_ramulator_4 channel 0 0 reqs
GPU_ramulator_5 channel 0 0 reqs
GPU_ramulator_6 channel 0 0 reqs
GPU_ramulator_7 channel 0 0 reqs
EXIT simd 7, 31 1function slot 0, finish counter 3
LINK_UTIL GPU: 0Port: 0 From GPU to CXL: 0 %  From CXL to GPU: 0 %
LINK_UTIL GPU: 0Port: 0 From GPU to CXL: 0 %  From CXL to GPU: 0 %
LINK_UTIL GPU: 0Port: 0 From GPU to CXL: 0 %  From CXL to GPU: 0 %
LINK_UTIL GPU: 0Port: 0 From GPU to CXL: 0 %  From CXL to GPU: 0 %
LINK_UTIL GPU: 0Port: 0 From GPU to CXL: 0 %  From CXL to GPU: 0 %


384/0 thread blocks finished
Elapsed time: 0 h, 21 min
Expected remaining time: 0 h, -21 min


LINK_UTIL GPU: 0Port: 0 From GPU to CXL: 0 %  From CXL to GPU: 0 %
LINK_UTIL GPU: 0Port: 0 From GPU to CXL: 0 %  From CXL to GPU: 0 %
LINK_UTIL GPU: 0Port: 0 From GPU to CXL: 0 %  From CXL to GPU: 0 %
LINK_UTIL GPU: 0Port: 0 From GPU to CXL: 0 %  From CXL to GPU: 0 %
LINK_UTIL GPU: 0Port: 0 From GPU to CXL: 0 %  From CXL to GPU: 0 %
LINK_UTIL GPU: 0Port: 0 From GPU to CXL: 0 %  From CXL to GPU: 0 %
LINK_UTIL GPU: 0Port: 0 From GPU to CXL: 0 %  From CXL to GPU: 0 %
LINK_UTIL GPU: 0Port: 0 From GPU to CXL: 0 %  From CXL to GPU: 0 %
LINK_UTIL GPU: 0Port: 0 From GPU to CXL: 0 %  From CXL to GPU: 0 %
LINK_UTIL GPU: 0Port: 0 From GPU to CXL: 0 %  From CXL to GPU: 0 %
CXL_0_ramulator_0 channel 0 0 reqs
CXL_0_ramulator_0 channel 1 0 reqs
CXL_0_ramulator_0 channel 2 0 reqs
CXL_0_ramulator_0 channel 3 0 reqs
CXL_0_ramulator_0 channel 4 0 reqs
CXL_0_ramulator_0 channel 5 0 reqs
CXL_0_ramulator_0 channel 6 0 reqs
CXL_0_ramulator_0 channel 7 5814 reqs
LINK_UTIL GPU: 0Port: 0 From GPU to CXL: 0 %  From CXL to GPU: 0 %
LINK_UTIL GPU: 0Port: 0 From GPU to CXL: 0 %  From CXL to GPU: 0 %
LINK_UTIL GPU: 0Port: 0 From GPU to CXL: 0 %  From CXL to GPU: 0 %


384/0 thread blocks finished
Elapsed time: 0 h, 21 min
Expected remaining time: 0 h, -21 min


LINK_UTIL GPU: 0Port: 0 From GPU to CXL: 0 %  From CXL to GPU: 0 %
LINK_UTIL GPU: 0Port: 0 From GPU to CXL: 0 %  From CXL to GPU: 0 %
GPU_ramulator_0 channel 0 0 reqs
GPU_ramulator_1 channel 0 0 reqs
GPU_ramulator_2 channel 0 0 reqs
GPU_ramulator_3 channel 0 0 reqs
GPU_ramulator_4 channel 0 0 reqs
GPU_ramulator_5 channel 0 0 reqs
GPU_ramulator_6 channel 0 0 reqs
GPU_ramulator_7 channel 0 0 reqs
LINK_UTIL GPU: 0Port: 0 From GPU to CXL: 0 %  From CXL to GPU: 0 %
LINK_UTIL GPU: 0Port: 0 From GPU to CXL: 0 %  From CXL to GPU: 0 %
LINK_UTIL GPU: 0Port: 0 From GPU to CXL: 0 %  From CXL to GPU: 0 %
LINK_UTIL GPU: 0Port: 0 From GPU to CXL: 0 %  From CXL to GPU: 0 %
LINK_UTIL GPU: 0Port: 0 From GPU to CXL: 0 %  From CXL to GPU: 0 %
LINK_UTIL GPU: 0Port: 0 From GPU to CXL: 0 %  From CXL to GPU: 0 %
LINK_UTIL GPU: 0Port: 0 From GPU to CXL: 0 %  From CXL to GPU: 0 %
LINK_UTIL GPU: 0Port: 0 From GPU to CXL: 0 %  From CXL to GPU: 0 %
LINK_UTIL GPU: 0Port: 0 From GPU to CXL: 0 %  From CXL to GPU: 0 %
LINK_UTIL GPU: 0Port: 0 From GPU to CXL: 0 %  From CXL to GPU: 0 %


384/0 thread blocks finished
Elapsed time: 0 h, 21 min
Expected remaining time: 0 h, -21 min


LINK_UTIL GPU: 0Port: 0 From GPU to CXL: 0 %  From CXL to GPU: 0 %
CXL_0_ramulator_0 channel 0 0 reqs
CXL_0_ramulator_0 channel 1 0 reqs
CXL_0_ramulator_0 channel 2 0 reqs
CXL_0_ramulator_0 channel 3 0 reqs
CXL_0_ramulator_0 channel 4 0 reqs
CXL_0_ramulator_0 channel 5 0 reqs
CXL_0_ramulator_0 channel 6 0 reqs
CXL_0_ramulator_0 channel 7 5185 reqs
LINK_UTIL GPU: 0Port: 0 From GPU to CXL: 0 %  From CXL to GPU: 0 %
LINK_UTIL GPU: 0Port: 0 From GPU to CXL: 0 %  From CXL to GPU: 0 %
LINK_UTIL GPU: 0Port: 0 From GPU to CXL: 0 %  From CXL to GPU: 0 %
LINK_UTIL GPU: 0Port: 0 From GPU to CXL: 0 %  From CXL to GPU: 0 %
LINK_UTIL GPU: 0Port: 0 From GPU to CXL: 0 %  From CXL to GPU: 0 %
LINK_UTIL GPU: 0Port: 0 From GPU to CXL: 0 %  From CXL to GPU: 0 %
LINK_UTIL GPU: 0Port: 0 From GPU to CXL: 0 %  From CXL to GPU: 0 %
LINK_UTIL GPU: 0Port: 0 From GPU to CXL: 0 %  From CXL to GPU: 0 %
LINK_UTIL GPU: 0Port: 0 From GPU to CXL: 0 %  From CXL to GPU: 0 %
GPU_ramulator_0 channel 0 0 reqs
GPU_ramulator_1 channel 0 0 reqs
GPU_ramulator_2 channel 0 0 reqs
GPU_ramulator_3 channel 0 0 reqs
GPU_ramulator_4 channel 0 0 reqs
GPU_ramulator_5 channel 0 0 reqs
GPU_ramulator_6 channel 0 0 reqs
GPU_ramulator_7 channel 0 0 reqs
LINK_UTIL GPU: 0Port: 0 From GPU to CXL: 0 %  From CXL to GPU: 0 %
LINK_UTIL GPU: 0Port: 0 From GPU to CXL: 0 %  From CXL to GPU: 0 %
LINK_UTIL GPU: 0Port: 0 From GPU to CXL: 0 %  From CXL to GPU: 0 %


384/0 thread blocks finished
Elapsed time: 0 h, 21 min
Expected remaining time: 0 h, -21 min


LINK_UTIL GPU: 0Port: 0 From GPU to CXL: 0 %  From CXL to GPU: 0 %
LINK_UTIL GPU: 0Port: 0 From GPU to CXL: 0 %  From CXL to GPU: 0 %
LINK_UTIL GPU: 0Port: 0 From GPU to CXL: 0 %  From CXL to GPU: 0 %
LINK_UTIL GPU: 0Port: 0 From GPU to CXL: 0 %  From CXL to GPU: 0 %
CXL_0_ramulator_0 channel 0 0 reqs
CXL_0_ramulator_0 channel 1 0 reqs
CXL_0_ramulator_0 channel 2 0 reqs
CXL_0_ramulator_0 channel 3 0 reqs
CXL_0_ramulator_0 channel 4 0 reqs
CXL_0_ramulator_0 channel 5 0 reqs
CXL_0_ramulator_0 channel 6 0 reqs
CXL_0_ramulator_0 channel 7 4897 reqs
LINK_UTIL GPU: 0Port: 0 From GPU to CXL: 0 %  From CXL to GPU: 0 %
LINK_UTIL GPU: 0Port: 0 From GPU to CXL: 0 %  From CXL to GPU: 0 %
LINK_UTIL GPU: 0Port: 0 From GPU to CXL: 0 %  From CXL to GPU: 0 %
LINK_UTIL GPU: 0Port: 0 From GPU to CXL: 0 %  From CXL to GPU: 0 %
LINK_UTIL GPU: 0Port: 0 From GPU to CXL: 0 %  From CXL to GPU: 0 %
EXIT simd 7, 31 1function slot 0, finish counter 2
LINK_UTIL GPU: 0Port: 0 From GPU to CXL: 0 %  From CXL to GPU: 0 %
LINK_UTIL GPU: 0Port: 0 From GPU to CXL: 0 %  From CXL to GPU: 0 %
LINK_UTIL GPU: 0Port: 0 From GPU to CXL: 0 %  From CXL to GPU: 0 %
LINK_UTIL GPU: 0Port: 0 From GPU to CXL: 0 %  From CXL to GPU: 0 %


384/0 thread blocks finished
Elapsed time: 0 h, 21 min
Expected remaining time: 0 h, -21 min


LINK_UTIL GPU: 0Port: 0 From GPU to CXL: 0 %  From CXL to GPU: 0 %
LINK_UTIL GPU: 0Port: 0 From GPU to CXL: 0 %  From CXL to GPU: 0 %
LINK_UTIL GPU: 0Port: 0 From GPU to CXL: 0 %  From CXL to GPU: 0 %
LINK_UTIL GPU: 0Port: 0 From GPU to CXL: 0 %  From CXL to GPU: 0 %
LINK_UTIL GPU: 0Port: 0 From GPU to CXL: 0 %  From CXL to GPU: 0 %
GPU_ramulator_0 channel 0 0 reqs
GPU_ramulator_1 channel 0 0 reqs
GPU_ramulator_2 channel 0 0 reqs
GPU_ramulator_3 channel 0 0 reqs
GPU_ramulator_4 channel 0 0 reqs
GPU_ramulator_5 channel 0 0 reqs
GPU_ramulator_6 channel 0 0 reqs
GPU_ramulator_7 channel 0 0 reqs
LINK_UTIL GPU: 0Port: 0 From GPU to CXL: 0 %  From CXL to GPU: 0 %
LINK_UTIL GPU: 0Port: 0 From GPU to CXL: 0 %  From CXL to GPU: 0 %
CXL_0_ramulator_0 channel 0 0 reqs
CXL_0_ramulator_0 channel 1 0 reqs
CXL_0_ramulator_0 channel 2 0 reqs
CXL_0_ramulator_0 channel 3 0 reqs
CXL_0_ramulator_0 channel 4 0 reqs
CXL_0_ramulator_0 channel 5 0 reqs
CXL_0_ramulator_0 channel 6 0 reqs
CXL_0_ramulator_0 channel 7 5291 reqs
LINK_UTIL GPU: 0Port: 0 From GPU to CXL: 0 %  From CXL to GPU: 0 %
LINK_UTIL GPU: 0Port: 0 From GPU to CXL: 0 %  From CXL to GPU: 0 %
LINK_UTIL GPU: 0Port: 0 From GPU to CXL: 0 %  From CXL to GPU: 0 %
LINK_UTIL GPU: 0Port: 0 From GPU to CXL: 0 %  From CXL to GPU: 0 %
LINK_UTIL GPU: 0Port: 0 From GPU to CXL: 0 %  From CXL to GPU: 0 %
LINK_UTIL GPU: 0Port: 0 From GPU to CXL: 0 %  From CXL to GPU: 0 %


384/0 thread blocks finished
Elapsed time: 0 h, 21 min
Expected remaining time: 0 h, -21 min


LINK_UTIL GPU: 0Port: 0 From GPU to CXL: 0 %  From CXL to GPU: 0 %
LINK_UTIL GPU: 0Port: 0 From GPU to CXL: 0 %  From CXL to GPU: 0 %
LINK_UTIL GPU: 0Port: 0 From GPU to CXL: 0 %  From CXL to GPU: 0 %
LINK_UTIL GPU: 0Port: 0 From GPU to CXL: 0 %  From CXL to GPU: 0 %
LINK_UTIL GPU: 0Port: 0 From GPU to CXL: 0 %  From CXL to GPU: 0 %
LINK_UTIL GPU: 0Port: 0 From GPU to CXL: 0 %  From CXL to GPU: 0 %
LINK_UTIL GPU: 0Port: 0 From GPU to CXL: 0 %  From CXL to GPU: 0 %
LINK_UTIL GPU: 0Port: 0 From GPU to CXL: 0 %  From CXL to GPU: 0 %
LINK_UTIL GPU: 0Port: 0 From GPU to CXL: 0 %  From CXL to GPU: 0 %
LINK_UTIL GPU: 0Port: 0 From GPU to CXL: 0 %  From CXL to GPU: 0 %
CXL_0_ramulator_0 channel 0 0 reqs
CXL_0_ramulator_0 channel 1 0 reqs
CXL_0_ramulator_0 channel 2 0 reqs
CXL_0_ramulator_0 channel 3 0 reqs
CXL_0_ramulator_0 channel 4 0 reqs
CXL_0_ramulator_0 channel 5 0 reqs
CXL_0_ramulator_0 channel 6 0 reqs
CXL_0_ramulator_0 channel 7 5296 reqs
LINK_UTIL GPU: 0Port: 0 From GPU to CXL: 0 %  From CXL to GPU: 0 %
LINK_UTIL GPU: 0Port: 0 From GPU to CXL: 0 %  From CXL to GPU: 0 %
GPU_ramulator_0 channel 0 0 reqs
GPU_ramulator_1 channel 0 0 reqs
GPU_ramulator_2 channel 0 0 reqs
GPU_ramulator_3 channel 0 0 reqs
GPU_ramulator_4 channel 0 0 reqs
GPU_ramulator_5 channel 0 0 reqs
GPU_ramulator_6 channel 0 0 reqs
GPU_ramulator_7 channel 0 0 reqs
LINK_UTIL GPU: 0Port: 0 From GPU to CXL: 0 %  From CXL to GPU: 0 %


384/0 thread blocks finished
Elapsed time: 0 h, 21 min
Expected remaining time: 0 h, -21 min


LINK_UTIL GPU: 0Port: 0 From GPU to CXL: 0 %  From CXL to GPU: 0 %
LINK_UTIL GPU: 0Port: 0 From GPU to CXL: 0 %  From CXL to GPU: 0 %
LINK_UTIL GPU: 0Port: 0 From GPU to CXL: 0 %  From CXL to GPU: 0 %
LINK_UTIL GPU: 0Port: 0 From GPU to CXL: 0 %  From CXL to GPU: 0 %
LINK_UTIL GPU: 0Port: 0 From GPU to CXL: 0 %  From CXL to GPU: 0 %
LINK_UTIL GPU: 0Port: 0 From GPU to CXL: 0 %  From CXL to GPU: 0 %
EXIT simd 7, 31 1function slot 0, finish counter 1
finish function 0 660cba00
Gantt info: gpu 0 finished NDP kernel  _NDP_fw_bert_output_ph1 at cycle 1595312 at CXL 0
[cxl_memory_buffer 0]	Kernel finished:  _NDP_fw_bert_output_ph1 current cycle 1595312
NDP barrier popped 0
NDP kernel launch 0 ./traces/kernel-8156/GPU_0/_NDP_custom-call.74_fw_bert_output_ph2_mean.traceg 0
[cxl_memory_buffer 0]	GPU 0 launnched NDP kernel ID 3473 :  _NDP_fw_bert_output_ph2_mean
Gantt info: gpu 0 launched NDP kernel  _NDP_fw_bert_output_ph2_mean at cycle 1595312 to CXL 0
NDP function launched to 0
function launched to 0
[simd_unit 0]	SIMD0 SET_FILTER 1007fb02e483900, 20, [16,]ID: 0Total 1

[simd_unit 1]	SIMD1 SET_FILTER 1007fb02e483900, 20, [16,]ID: 0Total 0

[simd_unit 2]	SIMD2 SET_FILTER 1007fb02e483900, 20, [16,]ID: 0Total 0

[simd_unit 3]	SIMD3 SET_FILTER 1007fb02e483900, 20, [16,]ID: 0Total 0

[simd_unit 4]	SIMD4 SET_FILTER 1007fb02e483900, 20, [16,]ID: 0Total 0

[simd_unit 5]	SIMD5 SET_FILTER 1007fb02e483900, 20, [16,]ID: 0Total 0

[simd_unit 6]	SIMD6 SET_FILTER 1007fb02e483900, 20, [16,]ID: 0Total 0

[simd_unit 7]	SIMD7 SET_FILTER 1007fb02e483900, 20, [16,]ID: 0Total 0

INITIALIZER 
FINALIZER 1 1
LINK_UTIL GPU: 0Port: 0 From GPU to CXL: 0 %  From CXL to GPU: 0 %
EXIT simd 0, 31 1function slot 0, finish counter 1
finish function 0 2e483900
Gantt info: gpu 0 finished NDP kernel  _NDP_fw_bert_output_ph2_mean at cycle 1595452 at CXL 0
[cxl_memory_buffer 0]	Kernel finished:  _NDP_fw_bert_output_ph2_mean current cycle 1595452
NDP barrier popped 0
NDP kernel launch 0 ./traces/kernel-8156/GPU_0/_NDP_custom-call.74_fw_bert_output_ph2_mean.traceg 0
[cxl_memory_buffer 0]	GPU 0 launnched NDP kernel ID 3473 :  _NDP_fw_bert_output_ph2_mean
Gantt info: gpu 0 launched NDP kernel  _NDP_fw_bert_output_ph2_mean at cycle 1595452 to CXL 0
NDP function launched to 0
function launched to 0
[simd_unit 0]	SIMD0 SET_FILTER 1007fb02e483900, 20, [16,]ID: 0Total 1

[simd_unit 1]	SIMD1 SET_FILTER 1007fb02e483900, 20, [16,]ID: 0Total 0

[simd_unit 2]	SIMD2 SET_FILTER 1007fb02e483900, 20, [16,]ID: 0Total 0

[simd_unit 3]	SIMD3 SET_FILTER 1007fb02e483900, 20, [16,]ID: 0Total 0

[simd_unit 4]	SIMD4 SET_FILTER 1007fb02e483900, 20, [16,]ID: 0Total 0

[simd_unit 5]	SIMD5 SET_FILTER 1007fb02e483900, 20, [16,]ID: 0Total 0

[simd_unit 6]	SIMD6 SET_FILTER 1007fb02e483900, 20, [16,]ID: 0Total 0

[simd_unit 7]	SIMD7 SET_FILTER 1007fb02e483900, 20, [16,]ID: 0Total 0

INITIALIZER 
FINALIZER 1 1
EXIT simd 0, 31 1function slot 0, finish counter 1
finish function 0 2e483900
Gantt info: gpu 0 finished NDP kernel  _NDP_fw_bert_output_ph2_mean at cycle 1595566 at CXL 0
[cxl_memory_buffer 0]	Kernel finished:  _NDP_fw_bert_output_ph2_mean current cycle 1595566
exit 1 gpu Num << 0
GPU_ramulator_0 memory channel 0 Overall mem bandwidth utilization 0.13 %
GPU_ramulator_1 memory channel 0 Overall mem bandwidth utilization 0.13 %
GPU_ramulator_2 memory channel 0 Overall mem bandwidth utilization 0.13 %
GPU_ramulator_3 memory channel 0 Overall mem bandwidth utilization 0.13 %
GPU_ramulator_4 memory channel 0 Overall mem bandwidth utilization 0.13 %
GPU_ramulator_5 memory channel 0 Overall mem bandwidth utilization 0.13 %
GPU_ramulator_6 memory channel 0 Overall mem bandwidth utilization 0.13 %
GPU_ramulator_7 memory channel 0 Overall mem bandwidth utilization 0.13 %
GPU FINISHED - 0
CXL_0_ramulator_0 memory channel 0 Overall mem bandwidth utilization 0.15 %
CXL_0_ramulator_0 memory channel 1 Overall mem bandwidth utilization 0.15 %
CXL_0_ramulator_0 memory channel 2 Overall mem bandwidth utilization 0.15 %
CXL_0_ramulator_0 memory channel 3 Overall mem bandwidth utilization 0.15 %
CXL_0_ramulator_0 memory channel 4 Overall mem bandwidth utilization 0.15 %
CXL_0_ramulator_0 memory channel 5 Overall mem bandwidth utilization 0.15 %
CXL_0_ramulator_0 memory channel 6 Overall mem bandwidth utilization 0.15 %
CXL_0_ramulator_0 memory channel 7 Overall mem bandwidth utilization 0.46 %
CXL BUFFER FINISHED 
Print all
GPGPU-Sim:  *** simulation thread exiting ***
GPGPU-Sim: *** exit detected ***
Spent 1297 second for simulation